@<TRIPOS>MOLECULE
mol_name
	 1000 	 999 	 0 	 0 	 0 
SMALL
USER_CHARGES
@<TRIPOS>ATOM
1			C			26.8265			27.0728			26.921			C			1	ala			1
2			C			27.0194			27.4537			27.2647			C			1	ala			1
3			C			27.0038			27.959			27.1999			C			1	ala			1
4			C			27.1743			28.2501			26.7477			C			1	ala			1
5			C			27.5641			28.5434			26.7535			C			1	ala			1
6			C			28.0104			28.2441			26.8606			C			1	ala			1
7			C			28.4321			28.5696			26.8845			C			1	ala			1
8			C			28.6006			28.5808			27.4459			C			1	ala			1
9			C			28.7864			29.1301			27.6086			C			1	ala			1
10			C			28.7294			29.5385			27.8023			C			1	ala			1
11			C			28.4045			29.9704			28.0565			C			1	ala			1
12			C			28.071			30.3983			28.0429			C			1	ala			1
13			C			27.7091			30.4256			27.5839			C			1	ala			1
14			C			27.805			30.9804			27.3146			C			1	ala			1
15			C			27.7146			31.2527			27.7053			C			1	ala			1
16			C			27.5086			31.161			28.2162			C			1	ala			1
17			C			27.3711			30.735			28.435			C			1	ala			1
18			C			27.2525			30.1564			28.268			C			1	ala			1
19			C			27.2768			30.0039			27.7124			C			1	ala			1
20			C			27.095			29.9919			27.2791			C			1	ala			1
21			C			26.5966			29.6862			27.3393			C			1	ala			1
22			C			26.6743			29.4457			27.8249			C			1	ala			1
23			C			26.1902			29.1024			27.8468			C			1	ala			1
24			C			26.0247			28.5767			27.9704			C			1	ala			1
25			C			26.0427			28.1063			27.5836			C			1	ala			1
26			C			26.1355			28.1053			27.1082			C			1	ala			1
27			C			26.4183			27.7217			26.6739			C			1	ala			1
28			C			26.4099			27.5024			26.3064			C			1	ala			1
29			C			26.6842			27.9158			25.9732			C			1	ala			1
30			C			26.7268			28.3222			25.8205			C			1	ala			1
31			C			27.217			28.5572			25.9699			C			1	ala			1
32			C			27.5238			29.0274			26.2043			C			1	ala			1
33			C			27.465			29.5444			25.9708			C			1	ala			1
34			C			27.385			29.9445			26.4176			C			1	ala			1
35			C			26.8748			30.1233			26.5268			C			1	ala			1
36			C			26.5301			30.3219			26.087			C			1	ala			1
37			C			26.5428			29.7667			25.8899			C			1	ala			1
38			C			26.5314			29.2452			26.1304			C			1	ala			1
39			C			26.7386			29.3109			26.5773			C			1	ala			1
40			C			27.2552			29.2495			26.8046			C			1	ala			1
41			C			27.2086			29.0353			27.3625			C			1	ala			1
42			C			27.4779			28.5765			27.4533			C			1	ala			1
43			C			27.9897			28.7189			27.6623			C			1	ala			1
44			C			28.0906			29.1815			27.2385			C			1	ala			1
45			C			27.8985			29.4815			27.435			C			1	ala			1
46			C			27.9802			29.4968			28.0113			C			1	ala			1
47			C			27.7699			29.0643			28.2059			C			1	ala			1
48			C			27.2535			29.1974			28.0888			C			1	ala			1
49			C			26.8835			28.705			28.1173			C			1	ala			1
50			C			26.8283			28.4687			27.9357			C			1	ala			1
51			C			27.2034			27.9091			28.0281			C			1	ala			1
52			C			26.9525			27.4259			28.0745			C			1	ala			1
53			C			26.8913			27.0236			27.8833			C			1	ala			1
54			C			27.2693			26.6926			27.5486			C			1	ala			1
55			C			27.2444			26.2065			27.8063			C			1	ala			1
56			C			27.6491			25.9726			28.0066			C			1	ala			1
57			C			28.0727			25.8612			28.2817			C			1	ala			1
58			C			28.2996			26.1641			28.6935			C			1	ala			1
59			C			28.598			26.541			28.4594			C			1	ala			1
60			C			28.5314			26.5665			27.8645			C			1	ala			1
61			C			28.1461			26.4304			27.4387			C			1	ala			1
62			C			28.1112			25.8836			27.3639			C			1	ala			1
63			C			27.7209			25.5237			27.4657			C			1	ala			1
64			C			27.7272			25.1646			27.9174			C			1	ala			1
65			C			27.4656			25.2121			28.4035			C			1	ala			1
66			C			27.4181			24.9139			28.8269			C			1	ala			1
67			C			27.2846			25.0843			29.3142			C			1	ala			1
68			C			27.0024			25.5812			29.4422			C			1	ala			1
69			C			26.768			25.7184			29.0211			C			1	ala			1
70			C			26.8089			26.0632			28.6582			C			1	ala			1
71			C			27.3288			26.1282			28.6936			C			1	ala			1
72			C			27.4795			26.6268			28.4875			C			1	ala			1
73			C			27.7538			26.8166			28.1387			C			1	ala			1
74			C			27.702			27.277			27.8067			C			1	ala			1
75			C			27.9641			27.0251			27.2922			C			1	ala			1
76			C			28.293			27.3477			27.1373			C			1	ala			1
77			C			28.5694			27.8004			27.4135			C			1	ala			1
78			C			28.8817			27.8761			27.2243			C			1	ala			1
79			C			29.2821			28.2708			27.0588			C			1	ala			1
80			C			29.5953			28.5754			27.3397			C			1	ala			1
81			C			29.9693			28.9475			27.2404			C			1	ala			1
82			C			30.1315			28.8595			26.7791			C			1	ala			1
83			C			29.7573			28.8684			26.4277			C			1	ala			1
84			C			29.4331			29.2813			26.4808			C			1	ala			1
85			C			29.795			29.6618			26.7259			C			1	ala			1
86			C			29.856			30.1159			26.5762			C			1	ala			1
87			C			29.8545			30.5961			26.7515			C			1	ala			1
88			C			30.135			30.9724			26.4098			C			1	ala			1
89			C			30.4866			31.3846			26.5752			C			1	ala			1
90			C			30.6673			31.7296			26.1805			C			1	ala			1
91			C			30.7056			31.8479			25.7918			C			1	ala			1
92			C			30.8756			31.4563			25.3404			C			1	ala			1
93			C			30.7787			31.0857			24.8781			C			1	ala			1
94			C			30.574			30.6254			24.9121			C			1	ala			1
95			C			30.726			30.2749			25.3473			C			1	ala			1
96			C			30.7368			29.7993			24.9872			C			1	ala			1
97			C			31.1803			29.9185			24.6643			C			1	ala			1
98			C			31.4352			30.3383			24.8248			C			1	ala			1
99			C			31.9901			30.3511			24.6421			C			1	ala			1
100			C			32.0789			29.8823			24.4077			C			1	ala			1
101			C			32.0054			29.4082			24.6347			C			1	ala			1
102			C			31.7561			29.2519			25.1424			C			1	ala			1
103			C			31.5266			28.7385			25.2536			C			1	ala			1
104			C			31.0667			28.8939			25.5113			C			1	ala			1
105			C			30.9607			29.3049			25.5815			C			1	ala			1
106			C			31.1188			29.6729			26.0449			C			1	ala			1
107			C			31.374			30.0932			26.1298			C			1	ala			1
108			C			31.7062			30.508			26.0564			C			1	ala			1
109			C			31.9227			30.4929			25.5313			C			1	ala			1
110			C			32.1097			29.9355			25.4582			C			1	ala			1
111			C			32.5155			29.7027			25.1675			C			1	ala			1
112			C			32.5425			29.1541			25.4263			C			1	ala			1
113			C			32.4216			28.8505			25.8734			C			1	ala			1
114			C			32.924			28.7596			26.1147			C			1	ala			1
115			C			33.0817			28.2832			25.9306			C			1	ala			1
116			C			32.884			27.8045			25.9667			C			1	ala			1
117			C			32.452			27.7139			25.7194			C			1	ala			1
118			C			32.1649			27.9657			25.5996			C			1	ala			1
119			C			31.916			28.4558			25.6282			C			1	ala			1
120			C			31.4457			28.4401			25.9911			C			1	ala			1
121			C			31.3253			28.4813			26.509			C			1	ala			1
122			C			31.7906			28.6176			26.831			C			1	ala			1
123			C			32.135			28.9672			26.6285			C			1	ala			1
124			C			32.4293			29.3253			26.7877			C			1	ala			1
125			C			32.2725			29.7021			27.2496			C			1	ala			1
126			C			31.8854			29.9056			27.6054			C			1	ala			1
127			C			31.8748			30.3342			27.5696			C			1	ala			1
128			C			31.5574			30.5636			27.1058			C			1	ala			1
129			C			31.6649			30.8651			26.7681			C			1	ala			1
130			C			32.0702			31.0261			26.3677			C			1	ala			1
131			C			32.4921			31.2094			26.5768			C			1	ala			1
132			C			33.0427			31.1351			26.3435			C			1	ala			1
133			C			33.1881			30.7231			26.6495			C			1	ala			1
134			C			32.9155			30.6884			27.1219			C			1	ala			1
135			C			32.4919			30.5709			27.1333			C			1	ala			1
136			C			32.411			30.3601			26.6989			C			1	ala			1
137			C			31.9968			30.0395			26.5245			C			1	ala			1
138			C			32.1486			29.645			26.0818			C			1	ala			1
139			C			32.6578			29.6895			26.033			C			1	ala			1
140			C			32.6756			30.3054			26.0018			C			1	ala			1
141			C			32.5118			30.7977			25.7813			C			1	ala			1
142			C			32.485			31.2842			25.7136			C			1	ala			1
143			C			32.2636			31.7978			25.9055			C			1	ala			1
144			C			31.9884			31.7704			26.3057			C			1	ala			1
145			C			31.5774			32.0868			26.4392			C			1	ala			1
146			C			31.1714			32.0958			26.6839			C			1	ala			1
147			C			31.2255			32.1512			27.241			C			1	ala			1
148			C			31.5701			32.2006			27.6128			C			1	ala			1
149			C			31.606			31.7941			28.0784			C			1	ala			1
150			C			31.6747			31.3604			27.9478			C			1	ala			1
151			C			31.4228			31.054			27.6027			C			1	ala			1
152			C			31.0368			31.2102			27.337			C			1	ala			1
153			C			30.7988			31.6645			27.5628			C			1	ala			1
154			C			30.8383			31.8502			28.0854			C			1	ala			1
155			C			30.7655			32.3486			27.9207			C			1	ala			1
156			C			30.5451			32.581			27.3686			C			1	ala			1
157			C			30.9959			32.9641			27.4329			C			1	ala			1
158			C			31.3213			33.0512			27.8871			C			1	ala			1
159			C			31.4023			32.6908			28.3468			C			1	ala			1
160			C			31.7971			32.4602			28.5507			C			1	ala			1
161			C			31.5864			32.1548			28.8935			C			1	ala			1
162			C			31.2148			31.8377			28.7657			C			1	ala			1
163			C			31.08			31.2632			28.6518			C			1	ala			1
164			C			31.3915			30.942			28.532			C			1	ala			1
165			C			31.7385			30.5927			28.326			C			1	ala			1
166			C			31.3373			30.2229			28.1043			C			1	ala			1
167			C			30.9701			30.482			27.7583			C			1	ala			1
168			C			30.8785			29.9296			27.6867			C			1	ala			1
169			C			30.5582			29.8686			28.1822			C			1	ala			1
170			C			30.334			29.6004			28.4367			C			1	ala			1
171			C			30.7018			29.3103			28.7039			C			1	ala			1
172			C			31.1254			29.4067			28.4442			C			1	ala			1
173			C			31.5717			29.7063			28.4505			C			1	ala			1
174			C			31.9684			29.6848			28.7967			C			1	ala			1
175			C			32.4933			29.4454			28.8577			C			1	ala			1
176			C			32.7681			29.0767			28.9422			C			1	ala			1
177			C			32.3761			28.7671			29.1449			C			1	ala			1
178			C			32.1115			29.0088			29.5661			C			1	ala			1
179			C			32.2339			28.8053			30.0659			C			1	ala			1
180			C			31.8154			28.5667			30.2674			C			1	ala			1
181			C			31.3734			28.5467			30.5268			C			1	ala			1
182			C			31.0831			28.9827			30.8119			C			1	ala			1
183			C			30.6978			28.65			31.1113			C			1	ala			1
184			C			30.4008			28.2251			30.8382			C			1	ala			1
185			C			30.2294			27.7812			31.0131			C			1	ala			1
186			C			30.6068			27.3404			30.9654			C			1	ala			1
187			C			30.8422			27.1982			30.5286			C			1	ala			1
188			C			31.1342			27.4382			30.1266			C			1	ala			1
189			C			31.6277			27.8066			30.2178			C			1	ala			1
190			C			31.7033			27.7083			30.8003			C			1	ala			1
191			C			32.1176			28.0087			30.9542			C			1	ala			1
192			C			32.0711			28.5269			31.0947			C			1	ala			1
193			C			31.8011			29.0176			31.1334			C			1	ala			1
194			C			31.5996			29.4509			31.2831			C			1	ala			1
195			C			31.3832			29.8399			31.0233			C			1	ala			1
196			C			31.0692			29.9083			30.6786			C			1	ala			1
197			C			30.9965			29.8875			30.1341			C			1	ala			1
198			C			30.647			30.1367			29.8342			C			1	ala			1
199			C			30.0688			30.1158			29.9807			C			1	ala			1
200			C			29.7594			30.3331			29.7315			C			1	ala			1
201			C			29.1542			30.3475			29.7205			C			1	ala			1
202			C			29.1614			30.6549			29.1718			C			1	ala			1
203			C			29.5898			30.6384			28.8903			C			1	ala			1
204			C			29.8588			30.2383			28.8497			C			1	ala			1
205			C			29.8375			29.9684			28.3706			C			1	ala			1
206			C			29.2426			30.1232			28.3821			C			1	ala			1
207			C			29.0597			29.7381			28.5683			C			1	ala			1
208			C			29.2448			29.2836			28.6395			C			1	ala			1
209			C			29.8318			28.9805			28.6829			C			1	ala			1
210			C			30.1521			28.7789			28.3624			C			1	ala			1
211			C			29.8687			28.3087			28.2522			C			1	ala			1
212			C			29.8122			28.0116			28.6944			C			1	ala			1
213			C			30.0332			28.2201			29.0784			C			1	ala			1
214			C			29.7463			27.9621			29.5634			C			1	ala			1
215			C			29.4537			27.7676			29.8524			C			1	ala			1
216			C			29.132			27.3213			29.872			C			1	ala			1
217			C			29.0427			27.0093			30.1734			C			1	ala			1
218			C			29.2575			26.5575			30.4564			C			1	ala			1
219			C			29.7468			26.3208			30.41			C			1	ala			1
220			C			29.7804			25.803			30.1855			C			1	ala			1
221			C			29.5213			25.4784			30.0332			C			1	ala			1
222			C			29.0966			25.6445			29.8136			C			1	ala			1
223			C			29.0604			26.1528			29.8137			C			1	ala			1
224			C			28.8895			26.2552			29.2883			C			1	ala			1
225			C			28.8197			26.7531			29.3253			C			1	ala			1
226			C			28.381			26.9286			29.5988			C			1	ala			1
227			C			28.3879			27.4706			29.4975			C			1	ala			1
228			C			28.7236			27.7122			29.2117			C			1	ala			1
229			C			29.1836			27.4625			28.9765			C			1	ala			1
230			C			29.5596			27.2773			29.0819			C			1	ala			1
231			C			30.0939			27.1984			29.1351			C			1	ala			1
232			C			30.6175			27.0638			29.4387			C			1	ala			1
233			C			30.8748			27.2199			28.8928			C			1	ala			1
234			C			30.4752			27.5317			28.7575			C			1	ala			1
235			C			30.6051			27.6812			28.1959			C			1	ala			1
236			C			30.4684			27.1352			28.1165			C			1	ala			1
237			C			30.706			26.9668			27.644			C			1	ala			1
238			C			30.9178			26.9539			27.1671			C			1	ala			1
239			C			31.2553			27.344			27.1352			C			1	ala			1
240			C			31.394			27.3663			27.5383			C			1	ala			1
241			C			31.6319			27.2637			28.1063			C			1	ala			1
242			C			32.1246			27.5524			28.1981			C			1	ala			1
243			C			32.5688			27.4273			27.9521			C			1	ala			1
244			C			32.9994			27.6701			28.0565			C			1	ala			1
245			C			33.0234			28.1296			27.6908			C			1	ala			1
246			C			33.313			28.3763			27.4199			C			1	ala			1
247			C			33.3846			28.3954			26.8456			C			1	ala			1
248			C			33.5317			28.064			26.515			C			1	ala			1
249			C			33.9133			28.3333			26.2138			C			1	ala			1
250			C			33.6981			28.9206			26.1841			C			1	ala			1
251			C			34.006			29.1682			26.5719			C			1	ala			1
252			C			33.966			28.8661			27.0594			C			1	ala			1
253			C			34.1923			28.4514			27.0986			C			1	ala			1
254			C			34.0277			27.8762			27.1726			C			1	ala			1
255			C			33.7821			27.9084			27.6083			C			1	ala			1
256			C			34.177			28.3405			27.8153			C			1	ala			1
257			C			33.9519			28.8163			27.9394			C			1	ala			1
258			C			33.9106			29.1555			28.3595			C			1	ala			1
259			C			33.4735			29.3238			28.7962			C			1	ala			1
260			C			33.4864			29.6757			29.003			C			1	ala			1
261			C			32.993			30.0166			28.7633			C			1	ala			1
262			C			32.5814			30.3709			28.553			C			1	ala			1
263			C			32.369			30.096			28.11			C			1	ala			1
264			C			32.5595			29.4989			28.0714			C			1	ala			1
265			C			32.9738			29.5371			28.1474			C			1	ala			1
266			C			33.5289			29.7369			27.9969			C			1	ala			1
267			C			33.6805			30.1208			28.1115			C			1	ala			1
268			C			33.9429			30.1176			28.5747			C			1	ala			1
269			C			34.172			30.5333			28.3395			C			1	ala			1
270			C			34.4708			30.9253			28.6253			C			1	ala			1
271			C			34.856			31.2576			28.3631			C			1	ala			1
272			C			34.6771			31.1938			27.7826			C			1	ala			1
273			C			34.3404			31.0215			27.6905			C			1	ala			1
274			C			33.7765			31.2703			27.892			C			1	ala			1
275			C			33.9038			31.5084			28.2892			C			1	ala			1
276			C			34.3226			31.7349			28.508			C			1	ala			1
277			C			34.4777			32.267			28.4473			C			1	ala			1
278			C			34.1972			32.5223			27.9959			C			1	ala			1
279			C			33.7923			32.3172			27.9572			C			1	ala			1
280			C			33.2633			32.0951			28.0794			C			1	ala			1
281			C			33.0173			31.6214			27.8376			C			1	ala			1
282			C			32.4631			31.7584			27.9446			C			1	ala			1
283			C			32.3345			31.9392			28.4466			C			1	ala			1
284			C			32.5406			31.9218			28.8462			C			1	ala			1
285			C			32.7676			32.423			29.0112			C			1	ala			1
286			C			32.7257			32.696			29.4638			C			1	ala			1
287			C			33.1705			33.0404			29.3408			C			1	ala			1
288			C			33.1624			33.1076			28.7452			C			1	ala			1
289			C			32.7183			33.4095			28.6319			C			1	ala			1
290			C			32.3782			33.7544			28.3256			C			1	ala			1
291			C			32.2387			34.1521			28.7912			C			1	ala			1
292			C			32.2019			33.8828			29.1514			C			1	ala			1
293			C			31.6152			33.7546			29.2562			C			1	ala			1
294			C			31.3247			33.6595			29.6373			C			1	ala			1
295			C			30.8058			33.5097			29.561			C			1	ala			1
296			C			30.9326			33.1069			29.2424			C			1	ala			1
297			C			31.4627			32.7887			29.3303			C			1	ala			1
298			C			31.8699			32.9554			29.7029			C			1	ala			1
299			C			32.0302			32.4895			30.067			C			1	ala			1
300			C			31.778			32.0564			30.1017			C			1	ala			1
301			C			31.4452			32.0024			29.6588			C			1	ala			1
302			C			31.3684			31.4861			29.5783			C			1	ala			1
303			C			31.7911			31.2251			29.8794			C			1	ala			1
304			C			32.2463			31.4968			29.6365			C			1	ala			1
305			C			32.435			31.9226			29.7939			C			1	ala			1
306			C			32.6793			32.2228			30.0848			C			1	ala			1
307			C			33.1695			32.0209			30.4576			C			1	ala			1
308			C			33.2043			31.5258			30.3619			C			1	ala			1
309			C			32.8357			31.2823			30.0669			C			1	ala			1
310			C			32.4615			30.8775			30.1768			C			1	ala			1
311			C			32.5572			30.8004			30.7119			C			1	ala			1
312			C			32.2616			31.2504			30.948			C			1	ala			1
313			C			32.2524			31.6442			30.573			C			1	ala			1
314			C			32.3494			32.1453			30.8015			C			1	ala			1
315			C			32.4345			32.6861			30.8965			C			1	ala			1
316			C			32.4889			32.9833			30.4371			C			1	ala			1
317			C			32.91			32.9511			30.1538			C			1	ala			1
318			C			33.382			33.0029			30.4196			C			1	ala			1
319			C			33.9358			32.6825			30.3765			C			1	ala			1
320			C			33.7044			32.6095			29.8318			C			1	ala			1
321			C			33.4207			32.2984			29.6948			C			1	ala			1
322			C			33.2024			31.8244			29.5175			C			1	ala			1
323			C			33.3991			31.3883			29.5268			C			1	ala			1
324			C			33.8938			31.6032			29.3072			C			1	ala			1
325			C			34.0927			32.0348			29.1862			C			1	ala			1
326			C			33.8271			32.4009			28.9295			C			1	ala			1
327			C			33.3862			32.2316			28.7072			C			1	ala			1
328			C			33.2725			31.7047			28.6558			C			1	ala			1
329			C			33.0245			31.3557			28.7038			C			1	ala			1
330			C			32.7653			31.095			29.1798			C			1	ala			1
331			C			32.4599			30.6989			29.3457			C			1	ala			1
332			C			31.9379			30.6825			29.3357			C			1	ala			1
333			C			31.3806			30.7188			29.2165			C			1	ala			1
334			C			31.2789			30.1444			29.0211			C			1	ala			1
335			C			31.5501			29.9418			29.468			C			1	ala			1
336			C			31.5627			30.2261			29.9546			C			1	ala			1
337			C			32.0764			30.3498			30.0253			C			1	ala			1
338			C			32.4666			29.9948			30.357			C			1	ala			1
339			C			32.0486			29.7736			30.6337			C			1	ala			1
340			C			31.7988			29.3629			30.393			C			1	ala			1
341			C			31.5447			29.3708			29.9865			C			1	ala			1
342			C			31.0541			29.0691			30.0752			C			1	ala			1
343			C			31.1611			28.7966			29.6696			C			1	ala			1
344			C			31.4054			28.3473			29.6927			C			1	ala			1
345			C			31.9326			28.233			29.5375			C			1	ala			1
346			C			32.1019			27.886			29.8264			C			1	ala			1
347			C			32.1263			27.2841			29.7183			C			1	ala			1
348			C			32.4957			27.1683			29.2959			C			1	ala			1
349			C			32.5798			26.9979			28.8104			C			1	ala			1
350			C			33.109			27.2466			28.7363			C			1	ala			1
351			C			33.5597			27.0842			28.6593			C			1	ala			1
352			C			34.1347			26.9713			28.6345			C			1	ala			1
353			C			34.4966			27.2808			28.7335			C			1	ala			1
354			C			34.578			27.6912			28.9256			C			1	ala			1
355			C			34.2399			28.071			29.231			C			1	ala			1
356			C			34.1254			28.3423			28.7752			C			1	ala			1
357			C			34.562			28.5502			28.5036			C			1	ala			1
358			C			35.0604			28.2626			28.6279			C			1	ala			1
359			C			35.3986			28.2032			28.2069			C			1	ala			1
360			C			35.4402			27.7641			28.1435			C			1	ala			1
361			C			35.1334			27.3586			28.34			C			1	ala			1
362			C			34.8186			27.1317			27.9697			C			1	ala			1
363			C			34.7177			26.7437			27.6764			C			1	ala			1
364			C			34.3355			26.2899			27.5139			C			1	ala			1
365			C			34.5823			26.1258			27.1089			C			1	ala			1
366			C			34.5783			25.6798			26.7277			C			1	ala			1
367			C			34.1553			25.4228			26.4166			C			1	ala			1
368			C			33.746			25.2166			26.231			C			1	ala			1
369			C			33.1845			25.3298			26.2979			C			1	ala			1
370			C			32.9019			25.5036			25.9035			C			1	ala			1
371			C			32.8242			26.056			25.8542			C			1	ala			1
372			C			33.2804			26.4656			25.8079			C			1	ala			1
373			C			33.5801			26.8493			25.7145			C			1	ala			1
374			C			33.9118			26.8027			26.1778			C			1	ala			1
375			C			33.5807			26.9072			26.5431			C			1	ala			1
376			C			32.9953			26.8215			26.4526			C			1	ala			1
377			C			32.6881			26.9012			26.8471			C			1	ala			1
378			C			32.8477			27.1135			27.296			C			1	ala			1
379			C			33.329			27.4692			27.2753			C			1	ala			1
380			C			32.8619			27.7564			27.1279			C			1	ala			1
381			C			32.6921			27.7005			26.6313			C			1	ala			1
382			C			32.2768			27.2889			26.4878			C			1	ala			1
383			C			31.9636			27.5455			26.88			C			1	ala			1
384			C			32.0874			27.943			27.3147			C			1	ala			1
385			C			31.644			28.0504			27.5484			C			1	ala			1
386			C			31.5138			28.173			28.1184			C			1	ala			1
387			C			31.2991			27.8964			28.4873			C			1	ala			1
388			C			30.9911			28.0688			28.9917			C			1	ala			1
389			C			31.1381			27.936			29.3967			C			1	ala			1
390			C			31.4658			27.4259			29.3492			C			1	ala			1
391			C			31.7029			27.3441			28.9375			C			1	ala			1
392			C			31.7541			26.7788			29.0831			C			1	ala			1
393			C			31.3106			26.5894			29.301			C			1	ala			1
394			C			31.2644			26.7176			29.8616			C			1	ala			1
395			C			31.6608			26.9063			30.1455			C			1	ala			1
396			C			32.1934			27.0945			30.2972			C			1	ala			1
397			C			32.3154			26.4592			30.2809			C			1	ala			1
398			C			32.0767			26.3959			29.7342			C			1	ala			1
399			C			31.9008			25.8895			29.4509			C			1	ala			1
400			C			32.2823			25.5966			29.2244			C			1	ala			1
401			C			32.1287			25.1964			28.8208			C			1	ala			1
402			C			31.9562			24.7263			28.6545			C			1	ala			1
403			C			31.7436			24.2464			28.6289			C			1	ala			1
404			C			31.2311			24.6186			28.6904			C			1	ala			1
405			C			31.2495			25.1031			28.4583			C			1	ala			1
406			C			30.8459			25.2984			28.196			C			1	ala			1
407			C			30.652			25.3769			27.6916			C			1	ala			1
408			C			30.6746			25.1313			27.2399			C			1	ala			1
409			C			30.7072			24.6678			27.109			C			1	ala			1
410			C			30.4918			24.3492			27.4869			C			1	ala			1
411			C			30.3241			24.4886			27.9385			C			1	ala			1
412			C			29.826			24.5781			28.1595			C			1	ala			1
413			C			29.459			24.6386			27.7822			C			1	ala			1
414			C			29.7214			24.616			27.3043			C			1	ala			1
415			C			29.9678			25.1182			27.2793			C			1	ala			1
416			C			29.6943			25.567			27.2399			C			1	ala			1
417			C			29.1492			25.294			27.3221			C			1	ala			1
418			C			29.169			25.1056			27.7537			C			1	ala			1
419			C			29.3654			25.3964			28.2868			C			1	ala			1
420			C			28.9781			24.9694			28.54			C			1	ala			1
421			C			28.8384			24.5045			28.3931			C			1	ala			1
422			C			28.9566			24.0345			28.2163			C			1	ala			1
423			C			28.8076			23.5973			28.435			C			1	ala			1
424			C			29.1424			23.2762			28.6058			C			1	ala			1
425			C			29.7			23.229			28.7487			C			1	ala			1
426			C			29.9246			22.801			28.86			C			1	ala			1
427			C			29.6			22.3921			28.5629			C			1	ala			1
428			C			29.1005			22.4884			28.6904			C			1	ala			1
429			C			29.0993			22.4152			29.1607			C			1	ala			1
430			C			28.9184			22.3997			29.7339			C			1	ala			1
431			C			28.5084			22.6292			29.9055			C			1	ala			1
432			C			28.0226			22.8765			29.8547			C			1	ala			1
433			C			28.0459			23.4563			29.7371			C			1	ala			1
434			C			28.5235			23.4693			30.0711			C			1	ala			1
435			C			28.3798			23.4685			30.5484			C			1	ala			1
436			C			28.2673			23.5473			30.9942			C			1	ala			1
437			C			27.8703			23.2769			31.116			C			1	ala			1
438			C			27.4953			23.0734			30.6717			C			1	ala			1
439			C			27.5451			23.4099			30.2259			C			1	ala			1
440			C			27.1635			23.6877			29.9288			C			1	ala			1
441			C			27.1348			23.3895			29.431			C			1	ala			1
442			C			27.6724			23.2093			29.2296			C			1	ala			1
443			C			27.4896			22.8082			28.8669			C			1	ala			1
444			C			27.6443			22.2604			28.7738			C			1	ala			1
445			C			27.6817			22.323			29.3317			C			1	ala			1
446			C			28.2187			22.399			29.1409			C			1	ala			1
447			C			28.4817			22.8845			28.9673			C			1	ala			1
448			C			28.5578			23.2876			29.2055			C			1	ala			1
449			C			29.0917			23.4395			29.4263			C			1	ala			1
450			C			29.1267			23.961			29.4373			C			1	ala			1
451			C			29.5839			24.1731			29.7208			C			1	ala			1
452			C			29.3952			24.4857			30.1633			C			1	ala			1
453			C			29.8476			24.694			30.4081			C			1	ala			1
454			C			30.2479			24.4585			30.1134			C			1	ala			1
455			C			30.3477			23.9531			30.007			C			1	ala			1
456			C			30.3886			23.4455			30.2125			C			1	ala			1
457			C			30.1363			23.2863			30.6617			C			1	ala			1
458			C			29.7329			23.1042			30.9216			C			1	ala			1
459			C			29.4261			23.3861			31.294			C			1	ala			1
460			C			29.1833			23.6176			31.6452			C			1	ala			1
461			C			29.4939			23.4932			32.018			C			1	ala			1
462			C			29.7175			23.1694			32.3771			C			1	ala			1
463			C			30.1497			22.9028			32.5267			C			1	ala			1
464			C			30.005			22.3532			32.6932			C			1	ala			1
465			C			30.016			21.8642			32.5938			C			1	ala			1
466			C			29.8467			21.4127			32.4243			C			1	ala			1
467			C			30.2061			21.1663			31.9693			C			1	ala			1
468			C			30.2819			20.7164			31.9513			C			1	ala			1
469			C			30.0133			20.3168			31.6537			C			1	ala			1
470			C			29.4834			20.1746			31.614			C			1	ala			1
471			C			29.1409			20.1426			31.9672			C			1	ala			1
472			C			28.5658			20.1831			31.7987			C			1	ala			1
473			C			28.4594			20.659			31.6762			C			1	ala			1
474			C			28.3435			20.8516			31.217			C			1	ala			1
475			C			28.2648			20.3128			30.9162			C			1	ala			1
476			C			27.9238			20.0351			31.1522			C			1	ala			1
477			C			28.1282			19.5032			31.1443			C			1	ala			1
478			C			28.2784			19.088			31.4639			C			1	ala			1
479			C			28.4454			19.2159			31.8718			C			1	ala			1
480			C			28.9656			19.2768			31.9831			C			1	ala			1
481			C			29.2342			19.4638			31.5415			C			1	ala			1
482			C			28.9021			19.6285			31.2292			C			1	ala			1
483			C			28.7504			19.9554			30.8486			C			1	ala			1
484			C			28.9724			20.0833			30.4376			C			1	ala			1
485			C			29.0652			20.6494			30.3821			C			1	ala			1
486			C			28.5476			20.9131			30.4346			C			1	ala			1
487			C			28.1722			20.559			30.1498			C			1	ala			1
488			C			27.7551			20.7987			30.4319			C			1	ala			1
489			C			27.2696			20.6526			30.2769			C			1	ala			1
490			C			27.3745			20.1722			30.3105			C			1	ala			1
491			C			27.7938			19.9613			30.3762			C			1	ala			1
492			C			28.2477			19.6282			30.3617			C			1	ala			1
493			C			28.6755			19.5564			30.0201			C			1	ala			1
494			C			28.8097			19.1206			29.7689			C			1	ala			1
495			C			28.3642			18.7903			29.8116			C			1	ala			1
496			C			28.9312			18.4538			29.8194			C			1	ala			1
497			C			28.6513			18.3032			30.3526			C			1	ala			1
498			C			28.9937			18.338			30.6928			C			1	ala			1
499			C			29.0705			17.8238			31.0028			C			1	ala			1
500			C			28.577			17.5992			30.9436			C			1	ala			1
501			C			28.224			17.6491			30.6471			C			1	ala			1
502			C			27.687			17.4415			30.5199			C			1	ala			1
503			C			27.4519			17.4747			30.0854			C			1	ala			1
504			C			27.4668			16.9797			29.799			C			1	ala			1
505			C			27.8179			16.6742			30.1055			C			1	ala			1
506			C			28.2638			16.9222			30.2663			C			1	ala			1
507			C			28.4714			16.6695			30.6944			C			1	ala			1
508			C			28.1807			16.2098			30.9078			C			1	ala			1
509			C			27.9776			15.9667			30.3329			C			1	ala			1
510			C			27.6854			16.0585			29.8684			C			1	ala			1
511			C			27.3507			16.0014			29.5539			C			1	ala			1
512			C			26.9917			16.2465			29.402			C			1	ala			1
513			C			26.9881			16.5512			29.8827			C			1	ala			1
514			C			26.5672			16.3951			30.2088			C			1	ala			1
515			C			26.4466			16.1977			30.637			C			1	ala			1
516			C			26.7972			15.8053			30.7197			C			1	ala			1
517			C			26.7792			15.3074			31.1203			C			1	ala			1
518			C			27.1752			15.515			31.4424			C			1	ala			1
519			C			27.5034			15.9431			31.1986			C			1	ala			1
520			C			27.3119			16.1838			30.7949			C			1	ala			1
521			C			27.359			16.6456			30.6688			C			1	ala			1
522			C			26.913			17.0232			30.6051			C			1	ala			1
523			C			26.4466			17.155			30.5543			C			1	ala			1
524			C			26.1339			17.4868			30.8501			C			1	ala			1
525			C			25.9693			17.3259			31.325			C			1	ala			1
526			C			25.8808			16.9249			31.6845			C			1	ala			1
527			C			26.0094			16.4608			31.8653			C			1	ala			1
528			C			25.7861			15.9839			31.8533			C			1	ala			1
529			C			25.9769			15.5561			31.6231			C			1	ala			1
530			C			26.03			15.769			31.0804			C			1	ala			1
531			C			25.6252			16.1639			30.9064			C			1	ala			1
532			C			25.3136			15.7881			30.9995			C			1	ala			1
533			C			25.2388			15.2703			30.8133			C			1	ala			1
534			C			25.7722			15.0388			30.9505			C			1	ala			1
535			C			26.0398			14.653			31.1539			C			1	ala			1
536			C			25.8527			14.1662			31.1868			C			1	ala			1
537			C			25.566			14.1631			30.7482			C			1	ala			1
538			C			25.1493			14.4633			30.905			C			1	ala			1
539			C			25.0295			14.5875			31.4243			C			1	ala			1
540			C			25.2785			14.9879			31.6773			C			1	ala			1
541			C			25.0917			14.8089			32.1734			C			1	ala			1
542			C			24.5187			14.8354			32.3701			C			1	ala			1
543			C			23.9758			14.7475			32.3564			C			1	ala			1
544			C			23.6318			15.1941			32.2179			C			1	ala			1
545			C			23.6233			15.6602			32.2262			C			1	ala			1
546			C			23.6878			15.8075			31.6656			C			1	ala			1
547			C			24.0267			15.6288			31.2358			C			1	ala			1
548			C			24.4463			15.8291			30.9978			C			1	ala			1
549			C			24.6452			16.3063			30.9624			C			1	ala			1
550			C			24.4669			16.3828			31.5401			C			1	ala			1
551			C			24.4347			16.0722			31.9948			C			1	ala			1
552			C			24.5225			15.5304			31.9016			C			1	ala			1
553			C			24.346			15.1523			31.5983			C			1	ala			1
554			C			24.2126			14.6752			31.6318			C			1	ala			1
555			C			24.1865			14.4382			31.1359			C			1	ala			1
556			C			23.7661			14.4261			30.8264			C			1	ala			1
557			C			23.3946			14.3797			31.26			C			1	ala			1
558			C			22.907			14.5062			31.2558			C			1	ala			1
559			C			22.5936			14.1326			31.609			C			1	ala			1
560			C			22.7651			13.6608			31.4618			C			1	ala			1
561			C			23.2378			13.6913			31.0932			C			1	ala			1
562			C			23.255			13.7581			30.5227			C			1	ala			1
563			C			22.9306			14.1372			30.3474			C			1	ala			1
564			C			22.7634			14.596			30.6909			C			1	ala			1
565			C			23.1279			15.0472			30.6171			C			1	ala			1
566			C			22.9386			15.3371			31.0151			C			1	ala			1
567			C			22.4562			15.4971			30.912			C			1	ala			1
568			C			22.4923			15.9801			30.7342			C			1	ala			1
569			C			22.9788			16.0573			30.4849			C			1	ala			1
570			C			23.4054			15.891			30.7318			C			1	ala			1
571			C			23.8523			16.0039			30.4472			C			1	ala			1
572			C			24.0849			16.4773			30.4423			C			1	ala			1
573			C			24.195			16.8968			30.3164			C			1	ala			1
574			C			24.5057			16.9233			29.8559			C			1	ala			1
575			C			24.7562			16.4449			29.7346			C			1	ala			1
576			C			24.4702			15.9834			29.8947			C			1	ala			1
577			C			24.0972			15.7359			29.5761			C			1	ala			1
578			C			23.7025			15.7617			29.2112			C			1	ala			1
579			C			23.2215			15.8136			29.4455			C			1	ala			1
580			C			23.1136			15.6602			29.8935			C			1	ala			1
581			C			23.5677			15.3847			29.9631			C			1	ala			1
582			C			24.1134			15.0547			29.9305			C			1	ala			1
583			C			24.389			15.1532			29.4151			C			1	ala			1
584			C			24.7611			15.4494			29.1579			C			1	ala			1
585			C			24.755			15.9017			28.9628			C			1	ala			1
586			C			24.4321			16.3459			29.2117			C			1	ala			1
587			C			23.89			16.5094			29.4311			C			1	ala			1
588			C			23.6921			16.3369			29.9006			C			1	ala			1
589			C			23.159			16.4517			30.093			C			1	ala			1
590			C			22.7967			16.9165			30.0689			C			1	ala			1
591			C			22.837			17.443			30.2502			C			1	ala			1
592			C			22.3623			17.6945			30.1433			C			1	ala			1
593			C			22.1504			17.7017			29.6228			C			1	ala			1
594			C			22.0316			17.7957			29.1538			C			1	ala			1
595			C			22.2393			17.6723			28.6667			C			1	ala			1
596			C			22.6443			17.5977			28.4045			C			1	ala			1
597			C			23.1059			17.5334			28.6889			C			1	ala			1
598			C			23.4293			17.7015			28.9782			C			1	ala			1
599			C			23.9357			17.3655			29.0429			C			1	ala			1
600			C			24.2487			17.4144			29.4483			C			1	ala			1
601			C			24.3865			17.8715			29.5607			C			1	ala			1
602			C			24.1566			17.8284			30.126			C			1	ala			1
603			C			23.8999			17.4065			30.3143			C			1	ala			1
604			C			23.5819			17.2489			29.9202			C			1	ala			1
605			C			23.4204			17.0376			29.4912			C			1	ala			1
606			C			23.1243			16.6134			29.2205			C			1	ala			1
607			C			23.1691			16.3099			28.7367			C			1	ala			1
608			C			22.7985			16.2429			28.3628			C			1	ala			1
609			C			22.4994			15.957			28.0142			C			1	ala			1
610			C			21.9925			15.9002			27.9791			C			1	ala			1
611			C			22.0531			15.6146			27.4944			C			1	ala			1
612			C			22.5013			15.4727			27.3105			C			1	ala			1
613			C			22.5566			15.1139			27.8476			C			1	ala			1
614			C			23.0744			14.9167			27.7753			C			1	ala			1
615			C			23.3835			15.1289			27.389			C			1	ala			1
616			C			23.383			15.5296			27.095			C			1	ala			1
617			C			23.6914			15.5852			26.7026			C			1	ala			1
618			C			23.9436			15.0558			26.5872			C			1	ala			1
619			C			23.7337			14.6182			26.762			C			1	ala			1
620			C			23.7215			14.4414			27.2906			C			1	ala			1
621			C			23.8583			14.4222			27.7363			C			1	ala			1
622			C			24.173			14.6809			28.102			C			1	ala			1
623			C			23.891			15.1282			28.1114			C			1	ala			1
624			C			24.1022			15.4562			27.8573			C			1	ala			1
625			C			24.2385			15.1767			27.3513			C			1	ala			1
626			C			24.5552			14.7764			27.3242			C			1	ala			1
627			C			25.0651			14.9287			27.6713			C			1	ala			1
628			C			25.1201			15.4648			27.4939			C			1	ala			1
629			C			25.4457			15.7645			27.1142			C			1	ala			1
630			C			25.8587			15.9666			27.2003			C			1	ala			1
631			C			26.1105			16.429			26.9578			C			1	ala			1
632			C			26.2289			17.0147			27.0752			C			1	ala			1
633			C			26.5006			17.4022			27.0337			C			1	ala			1
634			C			26.2055			17.7195			26.662			C			1	ala			1
635			C			25.6683			17.8591			26.6453			C			1	ala			1
636			C			25.648			18.4135			26.6909			C			1	ala			1
637			C			25.4939			18.632			27.1573			C			1	ala			1
638			C			25.5891			18.5635			27.619			C			1	ala			1
639			C			26.0304			18.8888			27.6418			C			1	ala			1
640			C			26.412			18.8613			27.2423			C			1	ala			1
641			C			26.6865			19.1786			27.0054			C			1	ala			1
642			C			26.7271			19.6395			27.1959			C			1	ala			1
643			C			26.8579			20.1699			26.8614			C			1	ala			1
644			C			27.2271			20.243			26.6035			C			1	ala			1
645			C			27.6286			20.0115			26.2106			C			1	ala			1
646			C			27.2694			19.8528			25.7927			C			1	ala			1
647			C			26.7603			20.0144			25.8083			C			1	ala			1
648			C			26.3623			20.483			25.8375			C			1	ala			1
649			C			26.5952			20.8037			26.2516			C			1	ala			1
650			C			27.1602			20.8506			26.1961			C			1	ala			1
651			C			27.2288			20.7069			25.6757			C			1	ala			1
652			C			26.8091			20.6214			25.296			C			1	ala			1
653			C			26.8316			20.9673			24.9173			C			1	ala			1
654			C			27.1051			21.1544			24.4872			C			1	ala			1
655			C			27.5431			20.9135			24.3798			C			1	ala			1
656			C			27.7599			20.7007			24.0455			C			1	ala			1
657			C			28.2909			20.7278			24.1176			C			1	ala			1
658			C			28.7616			20.4133			23.8747			C			1	ala			1
659			C			28.8749			20.1622			24.3552			C			1	ala			1
660			C			28.5225			20.25			24.738			C			1	ala			1
661			C			28.6403			20.5684			25.2431			C			1	ala			1
662			C			29.1683			20.4768			25.1264			C			1	ala			1
663			C			29.2655			19.9186			25.2302			C			1	ala			1
664			C			29.091			19.8347			25.6215			C			1	ala			1
665			C			29.1405			19.3224			25.8582			C			1	ala			1
666			C			29.4722			19.0046			25.4497			C			1	ala			1
667			C			29.9444			19.0712			25.4675			C			1	ala			1
668			C			30.3993			18.7644			25.2383			C			1	ala			1
669			C			30.6354			18.6091			24.825			C			1	ala			1
670			C			31.2263			18.678			25.0188			C			1	ala			1
671			C			31.4804			18.336			24.7425			C			1	ala			1
672			C			31.2954			18.179			24.1855			C			1	ala			1
673			C			30.9457			18.649			24.0277			C			1	ala			1
674			C			31.1405			19.1589			24.0496			C			1	ala			1
675			C			31.166			19.7232			24.0726			C			1	ala			1
676			C			30.8479			19.8706			23.5653			C			1	ala			1
677			C			30.6692			20.2962			23.8207			C			1	ala			1
678			C			30.43			20.3004			24.4218			C			1	ala			1
679			C			30.4947			19.7495			24.3787			C			1	ala			1
680			C			30.1083			19.5507			23.9725			C			1	ala			1
681			C			29.7927			19.9686			24.1895			C			1	ala			1
682			C			29.2983			19.8658			24.3451			C			1	ala			1
683			C			29.3476			19.4055			24.7304			C			1	ala			1
684			C			29.1273			19.0337			24.9287			C			1	ala			1
685			C			28.6959			18.813			24.7608			C			1	ala			1
686			C			28.7884			18.5461			24.2818			C			1	ala			1
687			C			29.2625			18.5001			24.1495			C			1	ala			1
688			C			29.341			18.2535			23.7162			C			1	ala			1
689			C			28.8693			18.0405			23.4955			C			1	ala			1
690			C			29.0196			17.6749			23.1028			C			1	ala			1
691			C			29.1764			17.7857			22.5811			C			1	ala			1
692			C			28.9122			18.2933			22.3377			C			1	ala			1
693			C			28.6148			18.6279			21.9695			C			1	ala			1
694			C			28.7393			18.8853			21.5188			C			1	ala			1
695			C			28.829			19.4215			21.5393			C			1	ala			1
696			C			29.2548			19.7921			21.5515			C			1	ala			1
697			C			29.5578			20.1651			21.7381			C			1	ala			1
698			C			29.7071			20.4717			22.0086			C			1	ala			1
699			C			29.4866			20.9068			22.2194			C			1	ala			1
700			C			29.1776			21.3322			22.482			C			1	ala			1
701			C			28.7807			21.0165			22.4288			C			1	ala			1
702			C			28.4049			20.8156			22.122			C			1	ala			1
703			C			28.6953			20.412			21.7695			C			1	ala			1
704			C			28.9726			20.1719			22.1739			C			1	ala			1
705			C			29.1959			20.2262			22.6858			C			1	ala			1
706			C			28.78			20.0145			22.9993			C			1	ala			1
707			C			28.3375			19.6601			22.9147			C			1	ala			1
708			C			28.1863			19.9618			22.4897			C			1	ala			1
709			C			28.0612			20.5191			22.463			C			1	ala			1
710			C			27.5797			20.3303			22.5919			C			1	ala			1
711			C			27.4279			20.0088			23.0593			C			1	ala			1
712			C			27.7292			19.6731			23.2969			C			1	ala			1
713			C			27.8513			19.2674			23.3393			C			1	ala			1
714			C			28.2884			19.0277			23.5438			C			1	ala			1
715			C			28.7266			18.8309			23.5353			C			1	ala			1
716			C			29.0542			19.0791			23.0484			C			1	ala			1
717			C			29.4867			19.4498			23.0804			C			1	ala			1
718			C			29.513			19.7243			22.663			C			1	ala			1
719			C			29.7127			19.4962			22.184			C			1	ala			1
720			C			29.8829			19.2265			21.7151			C			1	ala			1
721			C			29.5601			18.9038			21.388			C			1	ala			1
722			C			29.5061			18.4347			21.6657			C			1	ala			1
723			C			29.1182			18.1499			21.354			C			1	ala			1
724			C			28.8772			17.8509			21.6804			C			1	ala			1
725			C			28.5744			17.5288			21.9754			C			1	ala			1
726			C			28.478			17.1513			21.7007			C			1	ala			1
727			C			27.9536			16.8102			21.5956			C			1	ala			1
728			C			27.761			17.3557			21.5403			C			1	ala			1
729			C			27.782			17.6549			21.0904			C			1	ala			1
730			C			28.3336			17.7859			20.9058			C			1	ala			1
731			C			28.6739			17.4191			21.0305			C			1	ala			1
732			C			28.9461			17.4814			20.6837			C			1	ala			1
733			C			28.732			17.3164			20.1929			C			1	ala			1
734			C			28.3508			16.9214			20.1584			C			1	ala			1
735			C			28.1323			16.4961			19.9755			C			1	ala			1
736			C			28.003			16.3884			19.3513			C			1	ala			1
737			C			28.2811			15.8793			19.2251			C			1	ala			1
738			C			28.1431			15.5675			19.5953			C			1	ala			1
739			C			28.4998			15.2825			20.0023			C			1	ala			1
740			C			28.6393			15.6907			20.2741			C			1	ala			1
741			C			28.7519			16.203			20.1124			C			1	ala			1
742			C			28.9977			16.0328			19.6242			C			1	ala			1
743			C			29.561			15.9178			19.6793			C			1	ala			1
744			C			29.844			16.0231			20.0678			C			1	ala			1
745			C			29.7374			16.0947			20.6098			C			1	ala			1
746			C			30.0342			16.4264			20.8758			C			1	ala			1
747			C			29.9011			16.9742			21.0236			C			1	ala			1
748			C			29.6805			17.2123			20.6732			C			1	ala			1
749			C			29.6946			17.4835			20.2039			C			1	ala			1
750			C			29.3112			17.8296			19.8824			C			1	ala			1
751			C			28.9955			18.1849			20.1961			C			1	ala			1
752			C			28.5303			18.1958			20.2149			C			1	ala			1
753			C			28.2218			17.772			19.9464			C			1	ala			1
754			C			27.9998			17.7177			19.5064			C			1	ala			1
755			C			28.0171			17.1859			19.3577			C			1	ala			1
756			C			28.5175			16.8931			19.2971			C			1	ala			1
757			C			28.9289			16.7929			19.4654			C			1	ala			1
758			C			29.3031			16.9335			19.8596			C			1	ala			1
759			C			29.3604			16.6331			20.2649			C			1	ala			1
760			C			29.066			16.7023			20.8005			C			1	ala			1
761			C			28.6062			16.451			20.8174			C			1	ala			1
762			C			28.2316			16.9171			20.8822			C			1	ala			1
763			C			27.7603			16.8338			20.7422			C			1	ala			1
764			C			27.4495			16.4156			20.5911			C			1	ala			1
765			C			27.1083			16.0748			20.6819			C			1	ala			1
766			C			26.9731			15.9746			21.1794			C			1	ala			1
767			C			27.3421			16.094			21.562			C			1	ala			1
768			C			27.1423			16.5503			21.9059			C			1	ala			1
769			C			26.6467			16.5895			21.995			C			1	ala			1
770			C			26.2441			16.7468			22.2754			C			1	ala			1
771			C			25.7847			16.9166			22.1665			C			1	ala			1
772			C			25.2856			16.8032			22.3737			C			1	ala			1
773			C			25.6225			16.4606			22.6935			C			1	ala			1
774			C			25.7979			15.9846			22.6202			C			1	ala			1
775			C			26.1108			15.7147			22.285			C			1	ala			1
776			C			26.2913			15.1501			22.301			C			1	ala			1
777			C			26.7983			15.3318			22.5614			C			1	ala			1
778			C			26.8724			15.0958			23.0673			C			1	ala			1
779			C			27.4032			15.2222			23.118			C			1	ala			1
780			C			27.6589			15.4306			22.7187			C			1	ala			1
781			C			27.8356			15.873			22.8014			C			1	ala			1
782			C			27.6134			16.3916			22.8236			C			1	ala			1
783			C			27.2309			16.1778			22.6158			C			1	ala			1
784			C			26.7085			16.0826			22.7626			C			1	ala			1
785			C			26.3242			16.226			23.1036			C			1	ala			1
786			C			26.1851			16.717			23.2443			C			1	ala			1
787			C			26.1098			16.8171			23.7526			C			1	ala			1
788			C			26.1527			17.1811			24.1459			C			1	ala			1
789			C			25.9163			17.7164			23.9152			C			1	ala			1
790			C			25.6487			17.4852			23.4961			C			1	ala			1
791			C			25.8203			17.247			23.0727			C			1	ala			1
792			C			25.5666			17.4495			22.6435			C			1	ala			1
793			C			25.3683			17.837			22.765			C			1	ala			1
794			C			25.0414			18.0304			22.3271			C			1	ala			1
795			C			24.968			18.6642			22.2776			C			1	ala			1
796			C			25.1916			18.7951			21.8186			C			1	ala			1
797			C			25.2322			18.3022			21.4736			C			1	ala			1
798			C			25.4212			17.9161			21.2859			C			1	ala			1
799			C			25.2984			17.8255			20.7295			C			1	ala			1
800			C			25.5959			18.3942			20.647			C			1	ala			1
801			C			25.2053			18.7283			20.8075			C			1	ala			1
802			C			24.7712			18.852			20.9545			C			1	ala			1
803			C			24.396			18.6174			21.3762			C			1	ala			1
804			C			23.947			18.2997			21.1402			C			1	ala			1
805			C			23.8154			17.9091			20.9592			C			1	ala			1
806			C			23.5586			17.8862			20.456			C			1	ala			1
807			C			23.5609			17.5113			20.086			C			1	ala			1
808			C			23.7728			17.3849			19.6509			C			1	ala			1
809			C			23.9121			17.0053			19.3106			C			1	ala			1
810			C			23.9676			17.266			18.7746			C			1	ala			1
811			C			23.5481			17.6574			18.7391			C			1	ala			1
812			C			23.4713			18.0446			19.0122			C			1	ala			1
813			C			23.6162			18.1741			19.4898			C			1	ala			1
814			C			24.1045			18.2474			19.678			C			1	ala			1
815			C			24.3005			17.8813			20.056			C			1	ala			1
816			C			24.4447			17.5056			20.398			C			1	ala			1
817			C			23.9777			17.1142			20.5021			C			1	ala			1
818			C			23.5199			17.0829			20.8106			C			1	ala			1
819			C			23.2382			16.6164			20.4816			C			1	ala			1
820			C			23.1795			16.175			20.6165			C			1	ala			1
821			C			23.7661			16.1617			20.7595			C			1	ala			1
822			C			24.0802			16.5218			20.9757			C			1	ala			1
823			C			24.6247			16.5114			20.8272			C			1	ala			1
824			C			24.8885			16.8569			20.5118			C			1	ala			1
825			C			24.8047			16.7096			20.0155			C			1	ala			1
826			C			25.0433			16.3538			19.7643			C			1	ala			1
827			C			24.6602			15.9523			19.75			C			1	ala			1
828			C			25.0908			15.631			20.1349			C			1	ala			1
829			C			25.2782			15.276			19.9061			C			1	ala			1
830			C			24.9748			15.034			19.5023			C			1	ala			1
831			C			24.4388			14.8747			19.6504			C			1	ala			1
832			C			24.301			15.2823			19.9451			C			1	ala			1
833			C			23.7954			15.2469			20.2716			C			1	ala			1
834			C			23.504			15.2953			20.6595			C			1	ala			1
835			C			23.5602			15.5525			21.147			C			1	ala			1
836			C			23.3989			15.4809			21.4772			C			1	ala			1
837			C			23.41			14.9319			21.6958			C			1	ala			1
838			C			23.6664			14.4658			21.5507			C			1	ala			1
839			C			23.4881			14.1048			21.2			C			1	ala			1
840			C			23.8632			13.8845			20.8353			C			1	ala			1
841			C			24.0254			14.2909			20.4525			C			1	ala			1
842			C			24.5125			14.3072			20.2167			C			1	ala			1
843			C			24.9444			14.483			20.4843			C			1	ala			1
844			C			24.8113			14.1928			21.0427			C			1	ala			1
845			C			24.5155			14.6366			21.2392			C			1	ala			1
846			C			24.931			15.0547			21.2085			C			1	ala			1
847			C			24.914			15.4364			21.5703			C			1	ala			1
848			C			24.7932			15.858			21.4766			C			1	ala			1
849			C			24.2592			15.8706			21.4217			C			1	ala			1
850			C			24.1251			16.2656			21.7931			C			1	ala			1
851			C			24.3139			16.4747			22.2369			C			1	ala			1
852			C			24.0482			16.9712			22.3552			C			1	ala			1
853			C			23.6716			17.3009			22.4296			C			1	ala			1
854			C			23.3663			17.2502			21.9607			C			1	ala			1
855			C			22.8943			17.0393			21.7495			C			1	ala			1
856			C			22.4831			17.3559			21.7044			C			1	ala			1
857			C			22.4521			17.71			21.2683			C			1	ala			1
858			C			22.2726			18.1673			21.4724			C			1	ala			1
859			C			22.6036			18.4124			21.7038			C			1	ala			1
860			C			23.1493			18.4024			21.5729			C			1	ala			1
861			C			23.4557			18.722			21.3382			C			1	ala			1
862			C			23.6511			19.1988			21.4555			C			1	ala			1
863			C			23.9774			19.43			21.1615			C			1	ala			1
864			C			24.2416			19.2739			20.7499			C			1	ala			1
865			C			24.1598			18.7608			20.3972			C			1	ala			1
866			C			24.6119			18.5546			20.4028			C			1	ala			1
867			C			25.0041			18.5146			19.9367			C			1	ala			1
868			C			25.2256			18.0745			19.9042			C			1	ala			1
869			C			25.1472			17.6042			20.1491			C			1	ala			1
870			C			25.384			17.1713			19.9412			C			1	ala			1
871			C			25.8471			16.917			19.6511			C			1	ala			1
872			C			25.8517			16.4279			19.4375			C			1	ala			1
873			C			26.1939			16.0514			19.309			C			1	ala			1
874			C			26.7393			15.934			19.3264			C			1	ala			1
875			C			26.7752			16.3492			19.7231			C			1	ala			1
876			C			26.4128			16.3327			20.1484			C			1	ala			1
877			C			25.9905			16.6398			20.2976			C			1	ala			1
878			C			25.8217			17.1255			20.5714			C			1	ala			1
879			C			25.3008			17.105			20.9487			C			1	ala			1
880			C			24.9322			17.3963			21.1634			C			1	ala			1
881			C			24.4231			17.3921			21.127			C			1	ala			1
882			C			24.0045			17.2098			21.5089			C			1	ala			1
883			C			23.7787			16.7602			21.4726			C			1	ala			1
884			C			23.4209			16.4255			21.5594			C			1	ala			1
885			C			22.9377			16.266			21.3438			C			1	ala			1
886			C			22.6578			16.6088			21.031			C			1	ala			1
887			C			22.3687			16.6713			20.5002			C			1	ala			1
888			C			22.5736			16.4629			20.0879			C			1	ala			1
889			C			22.3752			16.6503			19.5333			C			1	ala			1
890			C			22.3951			17.2333			19.5225			C			1	ala			1
891			C			22.2241			17.547			19.0557			C			1	ala			1
892			C			22.5813			17.8395			18.76			C			1	ala			1
893			C			22.7868			18.1492			18.4271			C			1	ala			1
894			C			22.9334			18.571			18.1002			C			1	ala			1
895			C			22.7548			19.0865			18.1523			C			1	ala			1
896			C			22.9011			19.4451			18.6175			C			1	ala			1
897			C			22.7579			19.7202			18.9741			C			1	ala			1
898			C			23.1378			19.7652			19.4476			C			1	ala			1
899			C			23.0965			19.9911			19.9116			C			1	ala			1
900			C			22.7327			19.8617			20.3498			C			1	ala			1
901			C			22.6031			19.3418			20.3738			C			1	ala			1
902			C			22.5845			19.1596			19.9031			C			1	ala			1
903			C			22.6322			19.0149			19.4801			C			1	ala			1
904			C			22.9237			18.7907			19.0534			C			1	ala			1
905			C			22.4583			18.6449			18.8114			C			1	ala			1
906			C			22.0897			18.9553			18.5806			C			1	ala			1
907			C			22.08			19.3713			18.8844			C			1	ala			1
908			C			21.9445			19.5143			19.3952			C			1	ala			1
909			C			21.5427			19.5407			19.6748			C			1	ala			1
910			C			21.1246			19.1718			19.8536			C			1	ala			1
911			C			20.9908			19.1329			20.4076			C			1	ala			1
912			C			20.6526			18.8735			20.6327			C			1	ala			1
913			C			20.6084			18.7118			21.1805			C			1	ala			1
914			C			20.3883			19.1181			21.5792			C			1	ala			1
915			C			20.4061			19.0171			22.0779			C			1	ala			1
916			C			20.9001			19.3954			21.9817			C			1	ala			1
917			C			21.1353			19.7812			21.6501			C			1	ala			1
918			C			21.1262			20.2048			22.0289			C			1	ala			1
919			C			21.1701			20.1346			22.5533			C			1	ala			1
920			C			20.6595			20.0451			22.6955			C			1	ala			1
921			C			20.2655			20.0716			23.1718			C			1	ala			1
922			C			20.282			20.4153			23.5995			C			1	ala			1
923			C			20.2221			20.9427			23.6166			C			1	ala			1
924			C			20.532			21.1537			23.1627			C			1	ala			1
925			C			20.938			20.8169			23.0245			C			1	ala			1
926			C			21.0086			20.5174			23.3715			C			1	ala			1
927			C			20.8894			19.9599			23.517			C			1	ala			1
928			C			20.9921			19.481			23.4707			C			1	ala			1
929			C			21.5025			19.3262			23.2845			C			1	ala			1
930			C			21.5676			19.7349			22.8852			C			1	ala			1
931			C			22.0196			19.9379			23.0879			C			1	ala			1
932			C			22.4049			19.6726			23.3839			C			1	ala			1
933			C			22.7206			19.249			23.5896			C			1	ala			1
934			C			22.9452			19.2791			24.0946			C			1	ala			1
935			C			22.9776			19.2057			24.5464			C			1	ala			1
936			C			22.587			19.4119			24.9101			C			1	ala			1
937			C			22.0524			19.2859			24.9147			C			1	ala			1
938			C			21.7033			19.3262			25.3877			C			1	ala			1
939			C			21.179			19.2069			25.5577			C			1	ala			1
940			C			20.9911			19.2606			26.0962			C			1	ala			1
941			C			20.8419			18.9302			26.3294			C			1	ala			1
942			C			20.8644			18.8486			26.8955			C			1	ala			1
943			C			21.3544			18.8797			26.9649			C			1	ala			1
944			C			21.044			19.0236			27.3729			C			1	ala			1
945			C			20.7684			19.0953			27.8682			C			1	ala			1
946			C			20.311			19.2288			27.7082			C			1	ala			1
947			C			20.1092			19.7796			27.6961			C			1	ala			1
948			C			20.0624			19.9317			27.2185			C			1	ala			1
949			C			19.7844			19.9182			26.7712			C			1	ala			1
950			C			19.2623			20.0224			26.7186			C			1	ala			1
951			C			19.2022			20.5133			26.5376			C			1	ala			1
952			C			19.6555			20.7559			26.5814			C			1	ala			1
953			C			19.9237			21.1684			26.3795			C			1	ala			1
954			C			20.1386			21.5944			26.4258			C			1	ala			1
955			C			20.5549			21.8502			26.5241			C			1	ala			1
956			C			21.0024			21.7342			26.2416			C			1	ala			1
957			C			21.2007			22.0755			25.8327			C			1	ala			1
958			C			21.6701			22.3325			25.9077			C			1	ala			1
959			C			21.8954			21.9599			26.2989			C			1	ala			1
960			C			21.6397			21.746			26.6586			C			1	ala			1
961			C			21.3572			21.6505			27.1219			C			1	ala			1
962			C			21.1269			21.2404			26.9083			C			1	ala			1
963			C			20.643			21.0191			26.7036			C			1	ala			1
964			C			20.3986			20.7197			27.0755			C			1	ala			1
965			C			20.8275			20.3177			27.3597			C			1	ala			1
966			C			20.7099			20.1763			27.8006			C			1	ala			1
967			C			20.7055			20.5145			28.2224			C			1	ala			1
968			C			20.4238			20.9528			28.0166			C			1	ala			1
969			C			20.2802			21.3544			27.8507			C			1	ala			1
970			C			20.4696			21.8827			28.0477			C			1	ala			1
971			C			20.9455			21.7947			28.3981			C			1	ala			1
972			C			21.1019			21.2606			28.4489			C			1	ala			1
973			C			21.5232			20.9956			28.5687			C			1	ala			1
974			C			21.8237			20.9919			28.8745			C			1	ala			1
975			C			22.1002			21.3281			29.2503			C			1	ala			1
976			C			22.6733			21.408			29.3188			C			1	ala			1
977			C			22.9183			21.2585			28.7975			C			1	ala			1
978			C			22.593			21.3226			28.4756			C			1	ala			1
979			C			22.3773			20.8848			28.2059			C			1	ala			1
980			C			22.792			20.6129			28.2403			C			1	ala			1
981			C			23.2587			20.9976			28.0537			C			1	ala			1
982			C			23.7798			21.0026			28.1199			C			1	ala			1
983			C			24.2851			21.0133			28.0987			C			1	ala			1
984			C			24.6253			20.6344			27.9827			C			1	ala			1
985			C			24.3436			20.1343			27.995			C			1	ala			1
986			C			23.7896			20.1516			27.9085			C			1	ala			1
987			C			23.7364			20.4142			27.4587			C			1	ala			1
988			C			24.0476			20.6256			27.263			C			1	ala			1
989			C			24.5911			20.5273			27.2483			C			1	ala			1
990			C			24.8503			20.661			26.6984			C			1	ala			1
991			C			25.2112			20.9935			26.7813			C			1	ala			1
992			C			25.0642			21.442			26.4499			C			1	ala			1
993			C			24.6952			21.624			26.6828			C			1	ala			1
994			C			24.5709			22.1075			26.4464			C			1	ala			1
995			C			24.366			21.8488			25.9282			C			1	ala			1
996			C			24.5079			21.4091			25.7774			C			1	ala			1
997			C			23.9895			21.2875			26.1055			C			1	ala			1
998			C			23.6061			20.7781			25.9306			C			1	ala			1
999			C			23.1265			20.9906			25.8214			C			1	ala			1
1000			C			22.7545			20.7276			25.934			C			1	ala			1
@<TRIPOS>BOND
1 	 1 	 2 	 1 
2 	 2 	 3 	 1 
3 	 3 	 4 	 1 
4 	 4 	 5 	 1 
5 	 5 	 6 	 1 
6 	 6 	 7 	 1 
7 	 7 	 8 	 1 
8 	 8 	 9 	 1 
9 	 9 	 10 	 1 
10 	 10 	 11 	 1 
11 	 11 	 12 	 1 
12 	 12 	 13 	 1 
13 	 13 	 14 	 1 
14 	 14 	 15 	 1 
15 	 15 	 16 	 1 
16 	 16 	 17 	 1 
17 	 17 	 18 	 1 
18 	 18 	 19 	 1 
19 	 19 	 20 	 1 
20 	 20 	 21 	 1 
21 	 21 	 22 	 1 
22 	 22 	 23 	 1 
23 	 23 	 24 	 1 
24 	 24 	 25 	 1 
25 	 25 	 26 	 1 
26 	 26 	 27 	 1 
27 	 27 	 28 	 1 
28 	 28 	 29 	 1 
29 	 29 	 30 	 1 
30 	 30 	 31 	 1 
31 	 31 	 32 	 1 
32 	 32 	 33 	 1 
33 	 33 	 34 	 1 
34 	 34 	 35 	 1 
35 	 35 	 36 	 1 
36 	 36 	 37 	 1 
37 	 37 	 38 	 1 
38 	 38 	 39 	 1 
39 	 39 	 40 	 1 
40 	 40 	 41 	 1 
41 	 41 	 42 	 1 
42 	 42 	 43 	 1 
43 	 43 	 44 	 1 
44 	 44 	 45 	 1 
45 	 45 	 46 	 1 
46 	 46 	 47 	 1 
47 	 47 	 48 	 1 
48 	 48 	 49 	 1 
49 	 49 	 50 	 1 
50 	 50 	 51 	 1 
51 	 51 	 52 	 1 
52 	 52 	 53 	 1 
53 	 53 	 54 	 1 
54 	 54 	 55 	 1 
55 	 55 	 56 	 1 
56 	 56 	 57 	 1 
57 	 57 	 58 	 1 
58 	 58 	 59 	 1 
59 	 59 	 60 	 1 
60 	 60 	 61 	 1 
61 	 61 	 62 	 1 
62 	 62 	 63 	 1 
63 	 63 	 64 	 1 
64 	 64 	 65 	 1 
65 	 65 	 66 	 1 
66 	 66 	 67 	 1 
67 	 67 	 68 	 1 
68 	 68 	 69 	 1 
69 	 69 	 70 	 1 
70 	 70 	 71 	 1 
71 	 71 	 72 	 1 
72 	 72 	 73 	 1 
73 	 73 	 74 	 1 
74 	 74 	 75 	 1 
75 	 75 	 76 	 1 
76 	 76 	 77 	 1 
77 	 77 	 78 	 1 
78 	 78 	 79 	 1 
79 	 79 	 80 	 1 
80 	 80 	 81 	 1 
81 	 81 	 82 	 1 
82 	 82 	 83 	 1 
83 	 83 	 84 	 1 
84 	 84 	 85 	 1 
85 	 85 	 86 	 1 
86 	 86 	 87 	 1 
87 	 87 	 88 	 1 
88 	 88 	 89 	 1 
89 	 89 	 90 	 1 
90 	 90 	 91 	 1 
91 	 91 	 92 	 1 
92 	 92 	 93 	 1 
93 	 93 	 94 	 1 
94 	 94 	 95 	 1 
95 	 95 	 96 	 1 
96 	 96 	 97 	 1 
97 	 97 	 98 	 1 
98 	 98 	 99 	 1 
99 	 99 	 100 	 1 
100 	 100 	 101 	 1 
101 	 101 	 102 	 1 
102 	 102 	 103 	 1 
103 	 103 	 104 	 1 
104 	 104 	 105 	 1 
105 	 105 	 106 	 1 
106 	 106 	 107 	 1 
107 	 107 	 108 	 1 
108 	 108 	 109 	 1 
109 	 109 	 110 	 1 
110 	 110 	 111 	 1 
111 	 111 	 112 	 1 
112 	 112 	 113 	 1 
113 	 113 	 114 	 1 
114 	 114 	 115 	 1 
115 	 115 	 116 	 1 
116 	 116 	 117 	 1 
117 	 117 	 118 	 1 
118 	 118 	 119 	 1 
119 	 119 	 120 	 1 
120 	 120 	 121 	 1 
121 	 121 	 122 	 1 
122 	 122 	 123 	 1 
123 	 123 	 124 	 1 
124 	 124 	 125 	 1 
125 	 125 	 126 	 1 
126 	 126 	 127 	 1 
127 	 127 	 128 	 1 
128 	 128 	 129 	 1 
129 	 129 	 130 	 1 
130 	 130 	 131 	 1 
131 	 131 	 132 	 1 
132 	 132 	 133 	 1 
133 	 133 	 134 	 1 
134 	 134 	 135 	 1 
135 	 135 	 136 	 1 
136 	 136 	 137 	 1 
137 	 137 	 138 	 1 
138 	 138 	 139 	 1 
139 	 139 	 140 	 1 
140 	 140 	 141 	 1 
141 	 141 	 142 	 1 
142 	 142 	 143 	 1 
143 	 143 	 144 	 1 
144 	 144 	 145 	 1 
145 	 145 	 146 	 1 
146 	 146 	 147 	 1 
147 	 147 	 148 	 1 
148 	 148 	 149 	 1 
149 	 149 	 150 	 1 
150 	 150 	 151 	 1 
151 	 151 	 152 	 1 
152 	 152 	 153 	 1 
153 	 153 	 154 	 1 
154 	 154 	 155 	 1 
155 	 155 	 156 	 1 
156 	 156 	 157 	 1 
157 	 157 	 158 	 1 
158 	 158 	 159 	 1 
159 	 159 	 160 	 1 
160 	 160 	 161 	 1 
161 	 161 	 162 	 1 
162 	 162 	 163 	 1 
163 	 163 	 164 	 1 
164 	 164 	 165 	 1 
165 	 165 	 166 	 1 
166 	 166 	 167 	 1 
167 	 167 	 168 	 1 
168 	 168 	 169 	 1 
169 	 169 	 170 	 1 
170 	 170 	 171 	 1 
171 	 171 	 172 	 1 
172 	 172 	 173 	 1 
173 	 173 	 174 	 1 
174 	 174 	 175 	 1 
175 	 175 	 176 	 1 
176 	 176 	 177 	 1 
177 	 177 	 178 	 1 
178 	 178 	 179 	 1 
179 	 179 	 180 	 1 
180 	 180 	 181 	 1 
181 	 181 	 182 	 1 
182 	 182 	 183 	 1 
183 	 183 	 184 	 1 
184 	 184 	 185 	 1 
185 	 185 	 186 	 1 
186 	 186 	 187 	 1 
187 	 187 	 188 	 1 
188 	 188 	 189 	 1 
189 	 189 	 190 	 1 
190 	 190 	 191 	 1 
191 	 191 	 192 	 1 
192 	 192 	 193 	 1 
193 	 193 	 194 	 1 
194 	 194 	 195 	 1 
195 	 195 	 196 	 1 
196 	 196 	 197 	 1 
197 	 197 	 198 	 1 
198 	 198 	 199 	 1 
199 	 199 	 200 	 1 
200 	 200 	 201 	 1 
201 	 201 	 202 	 1 
202 	 202 	 203 	 1 
203 	 203 	 204 	 1 
204 	 204 	 205 	 1 
205 	 205 	 206 	 1 
206 	 206 	 207 	 1 
207 	 207 	 208 	 1 
208 	 208 	 209 	 1 
209 	 209 	 210 	 1 
210 	 210 	 211 	 1 
211 	 211 	 212 	 1 
212 	 212 	 213 	 1 
213 	 213 	 214 	 1 
214 	 214 	 215 	 1 
215 	 215 	 216 	 1 
216 	 216 	 217 	 1 
217 	 217 	 218 	 1 
218 	 218 	 219 	 1 
219 	 219 	 220 	 1 
220 	 220 	 221 	 1 
221 	 221 	 222 	 1 
222 	 222 	 223 	 1 
223 	 223 	 224 	 1 
224 	 224 	 225 	 1 
225 	 225 	 226 	 1 
226 	 226 	 227 	 1 
227 	 227 	 228 	 1 
228 	 228 	 229 	 1 
229 	 229 	 230 	 1 
230 	 230 	 231 	 1 
231 	 231 	 232 	 1 
232 	 232 	 233 	 1 
233 	 233 	 234 	 1 
234 	 234 	 235 	 1 
235 	 235 	 236 	 1 
236 	 236 	 237 	 1 
237 	 237 	 238 	 1 
238 	 238 	 239 	 1 
239 	 239 	 240 	 1 
240 	 240 	 241 	 1 
241 	 241 	 242 	 1 
242 	 242 	 243 	 1 
243 	 243 	 244 	 1 
244 	 244 	 245 	 1 
245 	 245 	 246 	 1 
246 	 246 	 247 	 1 
247 	 247 	 248 	 1 
248 	 248 	 249 	 1 
249 	 249 	 250 	 1 
250 	 250 	 251 	 1 
251 	 251 	 252 	 1 
252 	 252 	 253 	 1 
253 	 253 	 254 	 1 
254 	 254 	 255 	 1 
255 	 255 	 256 	 1 
256 	 256 	 257 	 1 
257 	 257 	 258 	 1 
258 	 258 	 259 	 1 
259 	 259 	 260 	 1 
260 	 260 	 261 	 1 
261 	 261 	 262 	 1 
262 	 262 	 263 	 1 
263 	 263 	 264 	 1 
264 	 264 	 265 	 1 
265 	 265 	 266 	 1 
266 	 266 	 267 	 1 
267 	 267 	 268 	 1 
268 	 268 	 269 	 1 
269 	 269 	 270 	 1 
270 	 270 	 271 	 1 
271 	 271 	 272 	 1 
272 	 272 	 273 	 1 
273 	 273 	 274 	 1 
274 	 274 	 275 	 1 
275 	 275 	 276 	 1 
276 	 276 	 277 	 1 
277 	 277 	 278 	 1 
278 	 278 	 279 	 1 
279 	 279 	 280 	 1 
280 	 280 	 281 	 1 
281 	 281 	 282 	 1 
282 	 282 	 283 	 1 
283 	 283 	 284 	 1 
284 	 284 	 285 	 1 
285 	 285 	 286 	 1 
286 	 286 	 287 	 1 
287 	 287 	 288 	 1 
288 	 288 	 289 	 1 
289 	 289 	 290 	 1 
290 	 290 	 291 	 1 
291 	 291 	 292 	 1 
292 	 292 	 293 	 1 
293 	 293 	 294 	 1 
294 	 294 	 295 	 1 
295 	 295 	 296 	 1 
296 	 296 	 297 	 1 
297 	 297 	 298 	 1 
298 	 298 	 299 	 1 
299 	 299 	 300 	 1 
300 	 300 	 301 	 1 
301 	 301 	 302 	 1 
302 	 302 	 303 	 1 
303 	 303 	 304 	 1 
304 	 304 	 305 	 1 
305 	 305 	 306 	 1 
306 	 306 	 307 	 1 
307 	 307 	 308 	 1 
308 	 308 	 309 	 1 
309 	 309 	 310 	 1 
310 	 310 	 311 	 1 
311 	 311 	 312 	 1 
312 	 312 	 313 	 1 
313 	 313 	 314 	 1 
314 	 314 	 315 	 1 
315 	 315 	 316 	 1 
316 	 316 	 317 	 1 
317 	 317 	 318 	 1 
318 	 318 	 319 	 1 
319 	 319 	 320 	 1 
320 	 320 	 321 	 1 
321 	 321 	 322 	 1 
322 	 322 	 323 	 1 
323 	 323 	 324 	 1 
324 	 324 	 325 	 1 
325 	 325 	 326 	 1 
326 	 326 	 327 	 1 
327 	 327 	 328 	 1 
328 	 328 	 329 	 1 
329 	 329 	 330 	 1 
330 	 330 	 331 	 1 
331 	 331 	 332 	 1 
332 	 332 	 333 	 1 
333 	 333 	 334 	 1 
334 	 334 	 335 	 1 
335 	 335 	 336 	 1 
336 	 336 	 337 	 1 
337 	 337 	 338 	 1 
338 	 338 	 339 	 1 
339 	 339 	 340 	 1 
340 	 340 	 341 	 1 
341 	 341 	 342 	 1 
342 	 342 	 343 	 1 
343 	 343 	 344 	 1 
344 	 344 	 345 	 1 
345 	 345 	 346 	 1 
346 	 346 	 347 	 1 
347 	 347 	 348 	 1 
348 	 348 	 349 	 1 
349 	 349 	 350 	 1 
350 	 350 	 351 	 1 
351 	 351 	 352 	 1 
352 	 352 	 353 	 1 
353 	 353 	 354 	 1 
354 	 354 	 355 	 1 
355 	 355 	 356 	 1 
356 	 356 	 357 	 1 
357 	 357 	 358 	 1 
358 	 358 	 359 	 1 
359 	 359 	 360 	 1 
360 	 360 	 361 	 1 
361 	 361 	 362 	 1 
362 	 362 	 363 	 1 
363 	 363 	 364 	 1 
364 	 364 	 365 	 1 
365 	 365 	 366 	 1 
366 	 366 	 367 	 1 
367 	 367 	 368 	 1 
368 	 368 	 369 	 1 
369 	 369 	 370 	 1 
370 	 370 	 371 	 1 
371 	 371 	 372 	 1 
372 	 372 	 373 	 1 
373 	 373 	 374 	 1 
374 	 374 	 375 	 1 
375 	 375 	 376 	 1 
376 	 376 	 377 	 1 
377 	 377 	 378 	 1 
378 	 378 	 379 	 1 
379 	 379 	 380 	 1 
380 	 380 	 381 	 1 
381 	 381 	 382 	 1 
382 	 382 	 383 	 1 
383 	 383 	 384 	 1 
384 	 384 	 385 	 1 
385 	 385 	 386 	 1 
386 	 386 	 387 	 1 
387 	 387 	 388 	 1 
388 	 388 	 389 	 1 
389 	 389 	 390 	 1 
390 	 390 	 391 	 1 
391 	 391 	 392 	 1 
392 	 392 	 393 	 1 
393 	 393 	 394 	 1 
394 	 394 	 395 	 1 
395 	 395 	 396 	 1 
396 	 396 	 397 	 1 
397 	 397 	 398 	 1 
398 	 398 	 399 	 1 
399 	 399 	 400 	 1 
400 	 400 	 401 	 1 
401 	 401 	 402 	 1 
402 	 402 	 403 	 1 
403 	 403 	 404 	 1 
404 	 404 	 405 	 1 
405 	 405 	 406 	 1 
406 	 406 	 407 	 1 
407 	 407 	 408 	 1 
408 	 408 	 409 	 1 
409 	 409 	 410 	 1 
410 	 410 	 411 	 1 
411 	 411 	 412 	 1 
412 	 412 	 413 	 1 
413 	 413 	 414 	 1 
414 	 414 	 415 	 1 
415 	 415 	 416 	 1 
416 	 416 	 417 	 1 
417 	 417 	 418 	 1 
418 	 418 	 419 	 1 
419 	 419 	 420 	 1 
420 	 420 	 421 	 1 
421 	 421 	 422 	 1 
422 	 422 	 423 	 1 
423 	 423 	 424 	 1 
424 	 424 	 425 	 1 
425 	 425 	 426 	 1 
426 	 426 	 427 	 1 
427 	 427 	 428 	 1 
428 	 428 	 429 	 1 
429 	 429 	 430 	 1 
430 	 430 	 431 	 1 
431 	 431 	 432 	 1 
432 	 432 	 433 	 1 
433 	 433 	 434 	 1 
434 	 434 	 435 	 1 
435 	 435 	 436 	 1 
436 	 436 	 437 	 1 
437 	 437 	 438 	 1 
438 	 438 	 439 	 1 
439 	 439 	 440 	 1 
440 	 440 	 441 	 1 
441 	 441 	 442 	 1 
442 	 442 	 443 	 1 
443 	 443 	 444 	 1 
444 	 444 	 445 	 1 
445 	 445 	 446 	 1 
446 	 446 	 447 	 1 
447 	 447 	 448 	 1 
448 	 448 	 449 	 1 
449 	 449 	 450 	 1 
450 	 450 	 451 	 1 
451 	 451 	 452 	 1 
452 	 452 	 453 	 1 
453 	 453 	 454 	 1 
454 	 454 	 455 	 1 
455 	 455 	 456 	 1 
456 	 456 	 457 	 1 
457 	 457 	 458 	 1 
458 	 458 	 459 	 1 
459 	 459 	 460 	 1 
460 	 460 	 461 	 1 
461 	 461 	 462 	 1 
462 	 462 	 463 	 1 
463 	 463 	 464 	 1 
464 	 464 	 465 	 1 
465 	 465 	 466 	 1 
466 	 466 	 467 	 1 
467 	 467 	 468 	 1 
468 	 468 	 469 	 1 
469 	 469 	 470 	 1 
470 	 470 	 471 	 1 
471 	 471 	 472 	 1 
472 	 472 	 473 	 1 
473 	 473 	 474 	 1 
474 	 474 	 475 	 1 
475 	 475 	 476 	 1 
476 	 476 	 477 	 1 
477 	 477 	 478 	 1 
478 	 478 	 479 	 1 
479 	 479 	 480 	 1 
480 	 480 	 481 	 1 
481 	 481 	 482 	 1 
482 	 482 	 483 	 1 
483 	 483 	 484 	 1 
484 	 484 	 485 	 1 
485 	 485 	 486 	 1 
486 	 486 	 487 	 1 
487 	 487 	 488 	 1 
488 	 488 	 489 	 1 
489 	 489 	 490 	 1 
490 	 490 	 491 	 1 
491 	 491 	 492 	 1 
492 	 492 	 493 	 1 
493 	 493 	 494 	 1 
494 	 494 	 495 	 1 
495 	 495 	 496 	 1 
496 	 496 	 497 	 1 
497 	 497 	 498 	 1 
498 	 498 	 499 	 1 
499 	 499 	 500 	 1 
500 	 500 	 501 	 1 
501 	 501 	 502 	 1 
502 	 502 	 503 	 1 
503 	 503 	 504 	 1 
504 	 504 	 505 	 1 
505 	 505 	 506 	 1 
506 	 506 	 507 	 1 
507 	 507 	 508 	 1 
508 	 508 	 509 	 1 
509 	 509 	 510 	 1 
510 	 510 	 511 	 1 
511 	 511 	 512 	 1 
512 	 512 	 513 	 1 
513 	 513 	 514 	 1 
514 	 514 	 515 	 1 
515 	 515 	 516 	 1 
516 	 516 	 517 	 1 
517 	 517 	 518 	 1 
518 	 518 	 519 	 1 
519 	 519 	 520 	 1 
520 	 520 	 521 	 1 
521 	 521 	 522 	 1 
522 	 522 	 523 	 1 
523 	 523 	 524 	 1 
524 	 524 	 525 	 1 
525 	 525 	 526 	 1 
526 	 526 	 527 	 1 
527 	 527 	 528 	 1 
528 	 528 	 529 	 1 
529 	 529 	 530 	 1 
530 	 530 	 531 	 1 
531 	 531 	 532 	 1 
532 	 532 	 533 	 1 
533 	 533 	 534 	 1 
534 	 534 	 535 	 1 
535 	 535 	 536 	 1 
536 	 536 	 537 	 1 
537 	 537 	 538 	 1 
538 	 538 	 539 	 1 
539 	 539 	 540 	 1 
540 	 540 	 541 	 1 
541 	 541 	 542 	 1 
542 	 542 	 543 	 1 
543 	 543 	 544 	 1 
544 	 544 	 545 	 1 
545 	 545 	 546 	 1 
546 	 546 	 547 	 1 
547 	 547 	 548 	 1 
548 	 548 	 549 	 1 
549 	 549 	 550 	 1 
550 	 550 	 551 	 1 
551 	 551 	 552 	 1 
552 	 552 	 553 	 1 
553 	 553 	 554 	 1 
554 	 554 	 555 	 1 
555 	 555 	 556 	 1 
556 	 556 	 557 	 1 
557 	 557 	 558 	 1 
558 	 558 	 559 	 1 
559 	 559 	 560 	 1 
560 	 560 	 561 	 1 
561 	 561 	 562 	 1 
562 	 562 	 563 	 1 
563 	 563 	 564 	 1 
564 	 564 	 565 	 1 
565 	 565 	 566 	 1 
566 	 566 	 567 	 1 
567 	 567 	 568 	 1 
568 	 568 	 569 	 1 
569 	 569 	 570 	 1 
570 	 570 	 571 	 1 
571 	 571 	 572 	 1 
572 	 572 	 573 	 1 
573 	 573 	 574 	 1 
574 	 574 	 575 	 1 
575 	 575 	 576 	 1 
576 	 576 	 577 	 1 
577 	 577 	 578 	 1 
578 	 578 	 579 	 1 
579 	 579 	 580 	 1 
580 	 580 	 581 	 1 
581 	 581 	 582 	 1 
582 	 582 	 583 	 1 
583 	 583 	 584 	 1 
584 	 584 	 585 	 1 
585 	 585 	 586 	 1 
586 	 586 	 587 	 1 
587 	 587 	 588 	 1 
588 	 588 	 589 	 1 
589 	 589 	 590 	 1 
590 	 590 	 591 	 1 
591 	 591 	 592 	 1 
592 	 592 	 593 	 1 
593 	 593 	 594 	 1 
594 	 594 	 595 	 1 
595 	 595 	 596 	 1 
596 	 596 	 597 	 1 
597 	 597 	 598 	 1 
598 	 598 	 599 	 1 
599 	 599 	 600 	 1 
600 	 600 	 601 	 1 
601 	 601 	 602 	 1 
602 	 602 	 603 	 1 
603 	 603 	 604 	 1 
604 	 604 	 605 	 1 
605 	 605 	 606 	 1 
606 	 606 	 607 	 1 
607 	 607 	 608 	 1 
608 	 608 	 609 	 1 
609 	 609 	 610 	 1 
610 	 610 	 611 	 1 
611 	 611 	 612 	 1 
612 	 612 	 613 	 1 
613 	 613 	 614 	 1 
614 	 614 	 615 	 1 
615 	 615 	 616 	 1 
616 	 616 	 617 	 1 
617 	 617 	 618 	 1 
618 	 618 	 619 	 1 
619 	 619 	 620 	 1 
620 	 620 	 621 	 1 
621 	 621 	 622 	 1 
622 	 622 	 623 	 1 
623 	 623 	 624 	 1 
624 	 624 	 625 	 1 
625 	 625 	 626 	 1 
626 	 626 	 627 	 1 
627 	 627 	 628 	 1 
628 	 628 	 629 	 1 
629 	 629 	 630 	 1 
630 	 630 	 631 	 1 
631 	 631 	 632 	 1 
632 	 632 	 633 	 1 
633 	 633 	 634 	 1 
634 	 634 	 635 	 1 
635 	 635 	 636 	 1 
636 	 636 	 637 	 1 
637 	 637 	 638 	 1 
638 	 638 	 639 	 1 
639 	 639 	 640 	 1 
640 	 640 	 641 	 1 
641 	 641 	 642 	 1 
642 	 642 	 643 	 1 
643 	 643 	 644 	 1 
644 	 644 	 645 	 1 
645 	 645 	 646 	 1 
646 	 646 	 647 	 1 
647 	 647 	 648 	 1 
648 	 648 	 649 	 1 
649 	 649 	 650 	 1 
650 	 650 	 651 	 1 
651 	 651 	 652 	 1 
652 	 652 	 653 	 1 
653 	 653 	 654 	 1 
654 	 654 	 655 	 1 
655 	 655 	 656 	 1 
656 	 656 	 657 	 1 
657 	 657 	 658 	 1 
658 	 658 	 659 	 1 
659 	 659 	 660 	 1 
660 	 660 	 661 	 1 
661 	 661 	 662 	 1 
662 	 662 	 663 	 1 
663 	 663 	 664 	 1 
664 	 664 	 665 	 1 
665 	 665 	 666 	 1 
666 	 666 	 667 	 1 
667 	 667 	 668 	 1 
668 	 668 	 669 	 1 
669 	 669 	 670 	 1 
670 	 670 	 671 	 1 
671 	 671 	 672 	 1 
672 	 672 	 673 	 1 
673 	 673 	 674 	 1 
674 	 674 	 675 	 1 
675 	 675 	 676 	 1 
676 	 676 	 677 	 1 
677 	 677 	 678 	 1 
678 	 678 	 679 	 1 
679 	 679 	 680 	 1 
680 	 680 	 681 	 1 
681 	 681 	 682 	 1 
682 	 682 	 683 	 1 
683 	 683 	 684 	 1 
684 	 684 	 685 	 1 
685 	 685 	 686 	 1 
686 	 686 	 687 	 1 
687 	 687 	 688 	 1 
688 	 688 	 689 	 1 
689 	 689 	 690 	 1 
690 	 690 	 691 	 1 
691 	 691 	 692 	 1 
692 	 692 	 693 	 1 
693 	 693 	 694 	 1 
694 	 694 	 695 	 1 
695 	 695 	 696 	 1 
696 	 696 	 697 	 1 
697 	 697 	 698 	 1 
698 	 698 	 699 	 1 
699 	 699 	 700 	 1 
700 	 700 	 701 	 1 
701 	 701 	 702 	 1 
702 	 702 	 703 	 1 
703 	 703 	 704 	 1 
704 	 704 	 705 	 1 
705 	 705 	 706 	 1 
706 	 706 	 707 	 1 
707 	 707 	 708 	 1 
708 	 708 	 709 	 1 
709 	 709 	 710 	 1 
710 	 710 	 711 	 1 
711 	 711 	 712 	 1 
712 	 712 	 713 	 1 
713 	 713 	 714 	 1 
714 	 714 	 715 	 1 
715 	 715 	 716 	 1 
716 	 716 	 717 	 1 
717 	 717 	 718 	 1 
718 	 718 	 719 	 1 
719 	 719 	 720 	 1 
720 	 720 	 721 	 1 
721 	 721 	 722 	 1 
722 	 722 	 723 	 1 
723 	 723 	 724 	 1 
724 	 724 	 725 	 1 
725 	 725 	 726 	 1 
726 	 726 	 727 	 1 
727 	 727 	 728 	 1 
728 	 728 	 729 	 1 
729 	 729 	 730 	 1 
730 	 730 	 731 	 1 
731 	 731 	 732 	 1 
732 	 732 	 733 	 1 
733 	 733 	 734 	 1 
734 	 734 	 735 	 1 
735 	 735 	 736 	 1 
736 	 736 	 737 	 1 
737 	 737 	 738 	 1 
738 	 738 	 739 	 1 
739 	 739 	 740 	 1 
740 	 740 	 741 	 1 
741 	 741 	 742 	 1 
742 	 742 	 743 	 1 
743 	 743 	 744 	 1 
744 	 744 	 745 	 1 
745 	 745 	 746 	 1 
746 	 746 	 747 	 1 
747 	 747 	 748 	 1 
748 	 748 	 749 	 1 
749 	 749 	 750 	 1 
750 	 750 	 751 	 1 
751 	 751 	 752 	 1 
752 	 752 	 753 	 1 
753 	 753 	 754 	 1 
754 	 754 	 755 	 1 
755 	 755 	 756 	 1 
756 	 756 	 757 	 1 
757 	 757 	 758 	 1 
758 	 758 	 759 	 1 
759 	 759 	 760 	 1 
760 	 760 	 761 	 1 
761 	 761 	 762 	 1 
762 	 762 	 763 	 1 
763 	 763 	 764 	 1 
764 	 764 	 765 	 1 
765 	 765 	 766 	 1 
766 	 766 	 767 	 1 
767 	 767 	 768 	 1 
768 	 768 	 769 	 1 
769 	 769 	 770 	 1 
770 	 770 	 771 	 1 
771 	 771 	 772 	 1 
772 	 772 	 773 	 1 
773 	 773 	 774 	 1 
774 	 774 	 775 	 1 
775 	 775 	 776 	 1 
776 	 776 	 777 	 1 
777 	 777 	 778 	 1 
778 	 778 	 779 	 1 
779 	 779 	 780 	 1 
780 	 780 	 781 	 1 
781 	 781 	 782 	 1 
782 	 782 	 783 	 1 
783 	 783 	 784 	 1 
784 	 784 	 785 	 1 
785 	 785 	 786 	 1 
786 	 786 	 787 	 1 
787 	 787 	 788 	 1 
788 	 788 	 789 	 1 
789 	 789 	 790 	 1 
790 	 790 	 791 	 1 
791 	 791 	 792 	 1 
792 	 792 	 793 	 1 
793 	 793 	 794 	 1 
794 	 794 	 795 	 1 
795 	 795 	 796 	 1 
796 	 796 	 797 	 1 
797 	 797 	 798 	 1 
798 	 798 	 799 	 1 
799 	 799 	 800 	 1 
800 	 800 	 801 	 1 
801 	 801 	 802 	 1 
802 	 802 	 803 	 1 
803 	 803 	 804 	 1 
804 	 804 	 805 	 1 
805 	 805 	 806 	 1 
806 	 806 	 807 	 1 
807 	 807 	 808 	 1 
808 	 808 	 809 	 1 
809 	 809 	 810 	 1 
810 	 810 	 811 	 1 
811 	 811 	 812 	 1 
812 	 812 	 813 	 1 
813 	 813 	 814 	 1 
814 	 814 	 815 	 1 
815 	 815 	 816 	 1 
816 	 816 	 817 	 1 
817 	 817 	 818 	 1 
818 	 818 	 819 	 1 
819 	 819 	 820 	 1 
820 	 820 	 821 	 1 
821 	 821 	 822 	 1 
822 	 822 	 823 	 1 
823 	 823 	 824 	 1 
824 	 824 	 825 	 1 
825 	 825 	 826 	 1 
826 	 826 	 827 	 1 
827 	 827 	 828 	 1 
828 	 828 	 829 	 1 
829 	 829 	 830 	 1 
830 	 830 	 831 	 1 
831 	 831 	 832 	 1 
832 	 832 	 833 	 1 
833 	 833 	 834 	 1 
834 	 834 	 835 	 1 
835 	 835 	 836 	 1 
836 	 836 	 837 	 1 
837 	 837 	 838 	 1 
838 	 838 	 839 	 1 
839 	 839 	 840 	 1 
840 	 840 	 841 	 1 
841 	 841 	 842 	 1 
842 	 842 	 843 	 1 
843 	 843 	 844 	 1 
844 	 844 	 845 	 1 
845 	 845 	 846 	 1 
846 	 846 	 847 	 1 
847 	 847 	 848 	 1 
848 	 848 	 849 	 1 
849 	 849 	 850 	 1 
850 	 850 	 851 	 1 
851 	 851 	 852 	 1 
852 	 852 	 853 	 1 
853 	 853 	 854 	 1 
854 	 854 	 855 	 1 
855 	 855 	 856 	 1 
856 	 856 	 857 	 1 
857 	 857 	 858 	 1 
858 	 858 	 859 	 1 
859 	 859 	 860 	 1 
860 	 860 	 861 	 1 
861 	 861 	 862 	 1 
862 	 862 	 863 	 1 
863 	 863 	 864 	 1 
864 	 864 	 865 	 1 
865 	 865 	 866 	 1 
866 	 866 	 867 	 1 
867 	 867 	 868 	 1 
868 	 868 	 869 	 1 
869 	 869 	 870 	 1 
870 	 870 	 871 	 1 
871 	 871 	 872 	 1 
872 	 872 	 873 	 1 
873 	 873 	 874 	 1 
874 	 874 	 875 	 1 
875 	 875 	 876 	 1 
876 	 876 	 877 	 1 
877 	 877 	 878 	 1 
878 	 878 	 879 	 1 
879 	 879 	 880 	 1 
880 	 880 	 881 	 1 
881 	 881 	 882 	 1 
882 	 882 	 883 	 1 
883 	 883 	 884 	 1 
884 	 884 	 885 	 1 
885 	 885 	 886 	 1 
886 	 886 	 887 	 1 
887 	 887 	 888 	 1 
888 	 888 	 889 	 1 
889 	 889 	 890 	 1 
890 	 890 	 891 	 1 
891 	 891 	 892 	 1 
892 	 892 	 893 	 1 
893 	 893 	 894 	 1 
894 	 894 	 895 	 1 
895 	 895 	 896 	 1 
896 	 896 	 897 	 1 
897 	 897 	 898 	 1 
898 	 898 	 899 	 1 
899 	 899 	 900 	 1 
900 	 900 	 901 	 1 
901 	 901 	 902 	 1 
902 	 902 	 903 	 1 
903 	 903 	 904 	 1 
904 	 904 	 905 	 1 
905 	 905 	 906 	 1 
906 	 906 	 907 	 1 
907 	 907 	 908 	 1 
908 	 908 	 909 	 1 
909 	 909 	 910 	 1 
910 	 910 	 911 	 1 
911 	 911 	 912 	 1 
912 	 912 	 913 	 1 
913 	 913 	 914 	 1 
914 	 914 	 915 	 1 
915 	 915 	 916 	 1 
916 	 916 	 917 	 1 
917 	 917 	 918 	 1 
918 	 918 	 919 	 1 
919 	 919 	 920 	 1 
920 	 920 	 921 	 1 
921 	 921 	 922 	 1 
922 	 922 	 923 	 1 
923 	 923 	 924 	 1 
924 	 924 	 925 	 1 
925 	 925 	 926 	 1 
926 	 926 	 927 	 1 
927 	 927 	 928 	 1 
928 	 928 	 929 	 1 
929 	 929 	 930 	 1 
930 	 930 	 931 	 1 
931 	 931 	 932 	 1 
932 	 932 	 933 	 1 
933 	 933 	 934 	 1 
934 	 934 	 935 	 1 
935 	 935 	 936 	 1 
936 	 936 	 937 	 1 
937 	 937 	 938 	 1 
938 	 938 	 939 	 1 
939 	 939 	 940 	 1 
940 	 940 	 941 	 1 
941 	 941 	 942 	 1 
942 	 942 	 943 	 1 
943 	 943 	 944 	 1 
944 	 944 	 945 	 1 
945 	 945 	 946 	 1 
946 	 946 	 947 	 1 
947 	 947 	 948 	 1 
948 	 948 	 949 	 1 
949 	 949 	 950 	 1 
950 	 950 	 951 	 1 
951 	 951 	 952 	 1 
952 	 952 	 953 	 1 
953 	 953 	 954 	 1 
954 	 954 	 955 	 1 
955 	 955 	 956 	 1 
956 	 956 	 957 	 1 
957 	 957 	 958 	 1 
958 	 958 	 959 	 1 
959 	 959 	 960 	 1 
960 	 960 	 961 	 1 
961 	 961 	 962 	 1 
962 	 962 	 963 	 1 
963 	 963 	 964 	 1 
964 	 964 	 965 	 1 
965 	 965 	 966 	 1 
966 	 966 	 967 	 1 
967 	 967 	 968 	 1 
968 	 968 	 969 	 1 
969 	 969 	 970 	 1 
970 	 970 	 971 	 1 
971 	 971 	 972 	 1 
972 	 972 	 973 	 1 
973 	 973 	 974 	 1 
974 	 974 	 975 	 1 
975 	 975 	 976 	 1 
976 	 976 	 977 	 1 
977 	 977 	 978 	 1 
978 	 978 	 979 	 1 
979 	 979 	 980 	 1 
980 	 980 	 981 	 1 
981 	 981 	 982 	 1 
982 	 982 	 983 	 1 
983 	 983 	 984 	 1 
984 	 984 	 985 	 1 
985 	 985 	 986 	 1 
986 	 986 	 987 	 1 
987 	 987 	 988 	 1 
988 	 988 	 989 	 1 
989 	 989 	 990 	 1 
990 	 990 	 991 	 1 
991 	 991 	 992 	 1 
992 	 992 	 993 	 1 
993 	 993 	 994 	 1 
994 	 994 	 995 	 1 
995 	 995 	 996 	 1 
996 	 996 	 997 	 1 
997 	 997 	 998 	 1 
998 	 998 	 999 	 1 
999 	 999 	 1000 	 1 
